@<TRIPOS>MOLECULE
IMPHY005852
 51 54 0 0 0
SMALL
GASTEIGER

@<TRIPOS>ATOM
      1 O           5.1350   -1.4221    0.0000 O.3     1  UNL1       -0.3609
      2 O           2.5369   -0.9221    0.0000 O.3     1  UNL1       -0.3862
      3 O           2.5369   -2.9221    0.0000 O.3     1  UNL1       -0.3865
      4 O           4.2690   -3.9221    0.0000 O.3     1  UNL1       -0.3865
      5 O           6.0010   -3.9221    0.0000 O.3     1  UNL1       -0.3924
      6 O           6.0290    0.0433    0.0000 O.2     1  UNL1       -0.4616
      7 O           2.5369    0.0779    0.0000 O.3     1  UNL1       -0.5063
      8 O           6.0174    3.1125    0.0000 O.2     1  UNL1       -0.2864
      9 O          10.3991    1.6121    0.0000 O.3     1  UNL1       -0.5033
     10 O          10.3914    3.6121    0.0000 O.3     1  UNL1       -0.5033
     11 C           3.4030   -1.4221    0.0000 C.3     1  UNL1        0.1139
     12 C           3.4030   -2.4221    0.0000 C.3     1  UNL1        0.1121
     13 C           4.2690   -0.9221    0.0000 C.3     1  UNL1        0.1193
     14 C           4.2690   -2.9221    0.0000 C.3     1  UNL1        0.1117
     15 C           5.1350   -2.4221    0.0000 C.3     1  UNL1        0.1108
     16 C           4.2690    0.0779    0.0000 C.ar    1  UNL1        0.0679
     17 C           6.0010   -2.9221    0.0000 C.3     1  UNL1        0.0729
     18 C           5.1350    0.5779    0.0000 C.ar    1  UNL1        0.1476
     19 C           3.4030    0.5779    0.0000 C.ar    1  UNL1        0.1261
     20 C           5.1350    1.5779    0.0000 C.ar    1  UNL1        0.0651
     21 C           3.4030    1.5779    0.0000 C.ar    1  UNL1       -0.0189
     22 C           4.2690    2.0779    0.0000 C.ar    1  UNL1       -0.0439
     23 C           6.0290    2.1126    0.0000 C.ar    1  UNL1        0.2002
     24 C           6.9350    1.5987    0.0000 C.ar    1  UNL1        0.0644
     25 C           6.9350    0.5571    0.0000 C.ar    1  UNL1        0.1039
     26 C           7.7991    2.1021    0.0000 C.ar    1  UNL1       -0.0076
     27 C           8.6671    1.6054    0.0000 C.ar    1  UNL1       -0.0086
     28 C           7.7953    3.1021    0.0000 C.ar    1  UNL1       -0.0501
     29 C           9.5312    2.1088    0.0000 C.ar    1  UNL1        0.1588
     30 C           8.6594    3.6054    0.0000 C.ar    1  UNL1       -0.0160
     31 C           9.5273    3.1087    0.0000 C.ar    1  UNL1        0.1582
     32 H           3.4030   -0.8021    0.0000 H       1  UNL1        0.0649
     33 H           3.4030   -3.0421    0.0000 H       1  UNL1        0.0647
     34 H           5.0051   -0.4971    0.0000 H       1  UNL1        0.0676
     35 H           4.8059   -3.2321    0.0000 H       1  UNL1        0.0647
     36 H           5.6720   -2.1121    0.0000 H       1  UNL1        0.0646
     37 H           6.6116   -3.0297    0.0000 H       1  UNL1        0.0584
     38 H           6.2131   -2.3395    0.0000 H       1  UNL1        0.0584
     39 H           2.0000   -1.2321    0.0000 H       1  UNL1        0.2100
     40 H           2.5369   -3.5421    0.0000 H       1  UNL1        0.2100
     41 H           3.7320   -4.2321    0.0000 H       1  UNL1        0.2100
     42 H           2.8660    1.8879    0.0000 H       1  UNL1        0.0654
     43 H           4.2690    2.6979    0.0000 H       1  UNL1        0.0627
     44 H           6.5380   -4.2321    0.0000 H       1  UNL1        0.2095
     45 H           7.4708    0.2450    0.0000 H       1  UNL1        0.1037
     46 H           2.0000    0.3879    0.0000 H       1  UNL1        0.2921
     47 H           8.6694    0.9854    0.0000 H       1  UNL1        0.0661
     48 H           7.2571    3.4100    0.0000 H       1  UNL1        0.0625
     49 H           8.6570    4.2254    0.0000 H       1  UNL1        0.0655
     50 H          10.9348    1.9242    0.0000 H       1  UNL1        0.2923
     51 H          10.3890    4.2321    0.0000 H       1  UNL1        0.2923
@<TRIPOS>BOND
     1     1    13    1
     2     1    15    1
     3    11     2    1
     4     2    39    1
     5    12     3    1
     6     3    40    1
     7    14     4    1
     8     4    41    1
     9     5    17    1
    10     5    44    1
    11     6    18   ar
    12     6    25   ar
    13     7    19    1
    14     7    46    1
    15     8    23    2
    16     9    29    1
    17     9    50    1
    18    10    31    1
    19    10    51    1
    20    11    12    1
    21    11    13    1
    22    11    32    1
    23    12    14    1
    24    12    33    1
    25    13    16    1
    26    13    34    1
    27    14    15    1
    28    14    35    1
    29    15    17    1
    30    15    36    1
    31    16    18   ar
    32    16    19   ar
    33    17    37    1
    34    17    38    1
    35    18    20   ar
    36    19    21   ar
    37    20    22   ar
    38    20    23   ar
    39    21    22   ar
    40    21    42    1
    41    22    43    1
    42    23    24   ar
    43    24    25   ar
    44    24    26    1
    45    25    45    1
    46    26    27   ar
    47    26    28   ar
    48    27    29   ar
    49    27    47    1
    50    28    30   ar
    51    28    48    1
    52    29    31   ar
    53    30    31   ar
    54    30    49    1
