@<TRIPOS>MOLECULE
IMPHY014428
 44 45 0 0 0
SMALL
GASTEIGER

@<TRIPOS>ATOM
      1 O           3.7320    3.3100    0.0000 O.2     1  UNL1       -0.2923
      2 O           2.0000   -2.6900    0.0000 O.3     1  UNL1       -0.4775
      3 O           3.7320   -2.6900    0.0000 O.2     1  UNL1       -0.2458
      4 C           4.5981    0.8100    0.0000 C.3     1  UNL1       -0.0118
      5 C           4.5981    1.8100    0.0000 C.3     1  UNL1        0.0328
      6 C           5.4920    2.3447    0.0000 C.3     1  UNL1       -0.0245
      7 C           5.4920    0.2753    0.0000 C.3     1  UNL1       -0.0461
      8 C           3.7320    0.3100    0.0000 C.3     1  UNL1        0.0049
      9 C           6.3981    1.8308    0.0000 C.3     1  UNL1       -0.0472
     10 C           6.3981    0.7892    0.0000 C.3     1  UNL1       -0.0520
     11 C           4.5981   -0.1900    0.0000 C.3     1  UNL1       -0.0581
     12 C           3.7320    2.3100    0.0000 C.2     1  UNL1        0.1602
     13 C           5.9820    3.2164    0.0000 C.3     1  UNL1       -0.0591
     14 C           4.9820    3.2048    0.0000 C.3     1  UNL1       -0.0591
     15 C           2.8660    0.8100    0.0000 C.2     1  UNL1       -0.0620
     16 C           2.8660    1.8100    0.0000 C.2     1  UNL1       -0.0193
     17 C           3.7320   -0.6900    0.0000 C.2     1  UNL1       -0.0696
     18 C           2.0000    0.3100    0.0000 C.3     1  UNL1       -0.0428
     19 C           2.8660   -1.1900    0.0000 C.2     1  UNL1        0.0190
     20 C           2.8660   -2.1900    0.0000 C.2     1  UNL1        0.3293
     21 H           4.5915    2.6600    0.0000 H       1  UNL1        0.0392
     22 H           5.0874   -0.1944    0.0000 H       1  UNL1        0.0271
     23 H           5.8856   -0.2037    0.0000 H       1  UNL1        0.0271
     24 H           3.1951   -0.0000    0.0000 H       1  UNL1        0.0394
     25 H           7.0089    1.7247    0.0000 H       1  UNL1        0.0271
     26 H           6.6071    2.4145    0.0000 H       1  UNL1        0.0271
     27 H           6.6071    0.2055    0.0000 H       1  UNL1        0.0266
     28 H           7.0089    0.8953    0.0000 H       1  UNL1        0.0266
     29 H           3.9781   -0.1900    0.0000 H       1  UNL1        0.0236
     30 H           4.5981   -0.8100    0.0000 H       1  UNL1        0.0236
     31 H           5.2181   -0.1900    0.0000 H       1  UNL1        0.0236
     32 H           6.5225    2.9126    0.0000 H       1  UNL1        0.0235
     33 H           6.2857    3.7569    0.0000 H       1  UNL1        0.0235
     34 H           5.4415    3.5202    0.0000 H       1  UNL1        0.0235
     35 H           5.5154    3.5210    0.0000 H       1  UNL1        0.0235
     36 H           4.6658    3.7382    0.0000 H       1  UNL1        0.0235
     37 H           4.4487    2.8887    0.0000 H       1  UNL1        0.0235
     38 H           2.3291    2.1200    0.0000 H       1  UNL1        0.0652
     39 H           4.2690   -1.0000    0.0000 H       1  UNL1        0.0580
     40 H           1.6900    0.8469    0.0000 H       1  UNL1        0.0275
     41 H           1.4631    0.0000    0.0000 H       1  UNL1        0.0275
     42 H           2.3100   -0.2269    0.0000 H       1  UNL1        0.0275
     43 H           2.3291   -0.8800    0.0000 H       1  UNL1        0.0686
     44 H           2.0000   -3.3100    0.0000 H       1  UNL1        0.2954
@<TRIPOS>BOND
     1     1    12    2
     2     2    20    1
     3     2    44    1
     4     3    20    2
     5     4     5    1
     6     4     7    1
     7     4     8    1
     8     4    11    1
     9     5     6    1
    10     5    12    1
    11     5    21    1
    12     6     9    1
    13     6    13    1
    14     6    14    1
    15     7    10    1
    16     7    22    1
    17     7    23    1
    18     8    15    1
    19     8    17    1
    20     8    24    1
    21     9    10    1
    22     9    25    1
    23     9    26    1
    24    10    27    1
    25    10    28    1
    26    11    29    1
    27    11    30    1
    28    11    31    1
    29    12    16    1
    30    13    32    1
    31    13    33    1
    32    13    34    1
    33    14    35    1
    34    14    36    1
    35    14    37    1
    36    15    16    2
    37    15    18    1
    38    16    38    1
    39    17    19    2
    40    17    39    1
    41    18    40    1
    42    18    41    1
    43    18    42    1
    44    19    20    1
    45    19    43    1
