@<TRIPOS>MOLECULE
IMPHY015086
 51 54 0 0 0
SMALL
GASTEIGER

@<TRIPOS>ATOM
      1 O           5.1350   -2.1296    0.0000 O.3     1  UNL1       -0.3313
      2 O           6.8671   -2.1296    0.0000 O.3     1  UNL1       -0.4535
      3 O           5.1350   -5.1296    0.0000 O.3     1  UNL1       -0.3864
      4 O           3.4030   -4.1296    0.0000 O.3     1  UNL1       -0.3865
      5 O           6.8671   -4.1296    0.0000 O.3     1  UNL1       -0.3829
      6 O           2.5369   -2.6296    0.0000 O.3     1  UNL1       -0.3924
      7 O           6.8510    1.9119    0.0000 O.2     1  UNL1       -0.4544
      8 O           8.5991   -1.1296    0.0000 O.3     1  UNL1       -0.5027
      9 O           5.1350   -1.1296    0.0000 O.3     1  UNL1       -0.5031
     10 O           9.5033    0.3672    0.0000 O.2     1  UNL1       -0.2869
     11 C           5.1350   -4.1296    0.0000 C.3     1  UNL1        0.1152
     12 C           4.2690   -3.6296    0.0000 C.3     1  UNL1        0.1120
     13 C           6.0010   -3.6296    0.0000 C.3     1  UNL1        0.1454
     14 C           4.2690   -2.6296    0.0000 C.3     1  UNL1        0.1140
     15 C           6.0010   -2.6296    0.0000 C.3     1  UNL1        0.2311
     16 C           3.4030   -2.1296    0.0000 C.3     1  UNL1        0.0731
     17 C           6.8671   -1.1296    0.0000 C.ar    1  UNL1        0.2072
     18 C           7.7331   -0.6296    0.0000 C.ar    1  UNL1        0.1769
     19 C           6.0010   -0.6296    0.0000 C.ar    1  UNL1        0.1658
     20 C           7.7331    0.3704    0.0000 C.ar    1  UNL1        0.1091
     21 C           6.8671    0.8704    0.0000 C.ar    1  UNL1        0.1465
     22 C           6.0010    0.3704    0.0000 C.ar    1  UNL1        0.0268
     23 C           8.6431    0.8772    0.0000 C.ar    1  UNL1        0.1967
     24 C           7.7490    2.4396    0.0000 C.ar    1  UNL1        0.1392
     25 C           8.6511    1.9188    0.0000 C.ar    1  UNL1        0.0288
     26 C           7.7452    3.4396    0.0000 C.ar    1  UNL1        0.0174
     27 C           8.6093    3.9430    0.0000 C.ar    1  UNL1       -0.0511
     28 C           6.8772    3.9363    0.0000 C.ar    1  UNL1       -0.0511
     29 C           8.6054    4.9430    0.0000 C.ar    1  UNL1       -0.0611
     30 C           6.8734    4.9363    0.0000 C.ar    1  UNL1       -0.0611
     31 C           7.7375    5.4396    0.0000 C.ar    1  UNL1       -0.0617
     32 H           5.6720   -4.4396    0.0000 H       1  UNL1        0.0648
     33 H           3.7320   -3.3196    0.0000 H       1  UNL1        0.0647
     34 H           6.5380   -3.3196    0.0000 H       1  UNL1        0.0683
     35 H           4.2690   -2.0096    0.0000 H       1  UNL1        0.0647
     36 H           6.0010   -2.0096    0.0000 H       1  UNL1        0.1084
     37 H           3.8015   -1.6547    0.0000 H       1  UNL1        0.0584
     38 H           3.0044   -1.6547    0.0000 H       1  UNL1        0.0584
     39 H           4.5981   -5.4396    0.0000 H       1  UNL1        0.2100
     40 H           3.4030   -4.7496    0.0000 H       1  UNL1        0.2100
     41 H           6.8671   -4.7496    0.0000 H       1  UNL1        0.2102
     42 H           2.0000   -2.3196    0.0000 H       1  UNL1        0.2095
     43 H           5.4641    0.6804    0.0000 H       1  UNL1        0.0692
     44 H           9.1892    2.2268    0.0000 H       1  UNL1        0.0693
     45 H           8.5991   -1.7496    0.0000 H       1  UNL1        0.2923
     46 H           4.5981   -0.8196    0.0000 H       1  UNL1        0.2923
     47 H           9.1474    3.6350    0.0000 H       1  UNL1        0.0625
     48 H           6.3415    3.6242    0.0000 H       1  UNL1        0.0625
     49 H           9.1412    5.2550    0.0000 H       1  UNL1        0.0618
     50 H           6.3353    5.2442    0.0000 H       1  UNL1        0.0618
     51 H           7.7351    6.0596    0.0000 H       1  UNL1        0.0618
@<TRIPOS>BOND
     1     1    14    1
     2     1    15    1
     3     2    15    1
     4     2    17    1
     5     3    11    1
     6     3    39    1
     7     4    12    1
     8     4    40    1
     9     5    13    1
    10     5    41    1
    11     6    16    1
    12     6    42    1
    13     7    21   ar
    14     7    24   ar
    15     8    18    1
    16     8    45    1
    17     9    19    1
    18     9    46    1
    19    10    23    2
    20    11    12    1
    21    11    13    1
    22    11    32    1
    23    12    14    1
    24    12    33    1
    25    13    15    1
    26    13    34    1
    27    14    16    1
    28    14    35    1
    29    15    36    1
    30    16    37    1
    31    16    38    1
    32    17    18   ar
    33    17    19   ar
    34    18    20   ar
    35    19    22   ar
    36    20    21   ar
    37    20    23   ar
    38    21    22   ar
    39    22    43    1
    40    23    25   ar
    41    24    25   ar
    42    24    26    1
    43    25    44    1
    44    26    27   ar
    45    26    28   ar
    46    27    29   ar
    47    27    47    1
    48    28    30   ar
    49    28    48    1
    50    29    31   ar
    51    29    49    1
    52    30    31   ar
    53    30    50    1
    54    31    51    1
