@<TRIPOS>MOLECULE
IMPHY015074
 62 68 0 0 0
SMALL
GASTEIGER

@<TRIPOS>ATOM
      1 O           4.5090    1.2805    0.0000 O.3     1  UNL1       -0.3571
      2 O           3.3938    3.7615    0.0000 O.3     1  UNL1       -0.3597
      3 O           5.3613   -2.3612    0.0000 O.3     1  UNL1       -0.4564
      4 O           4.5011   -3.8645    0.0000 O.2     1  UNL1       -0.2511
      5 N           2.7370    2.2897    0.0000 N.3     1  UNL1       -0.2488
      6 C           3.6030    0.7897    0.0000 C.3     1  UNL1        0.0177
      7 C           3.5870   -0.2518    0.0000 C.3     1  UNL1       -0.0192
      8 C           4.4850   -0.7796    0.0000 C.3     1  UNL1        0.0414
      9 C           4.4691    1.2897    0.0000 C.3     1  UNL1       -0.0201
     10 C           5.3871   -0.2588    0.0000 C.3     1  UNL1        0.0706
     11 C           4.4691    2.2897    0.0000 C.3     1  UNL1        0.0114
     12 C           2.7370    1.2897    0.0000 C.3     1  UNL1        0.1204
     13 C           5.3791    0.7828    0.0000 C.3     1  UNL1       -0.0218
     14 C           3.4000    1.1596    0.0000 C.3     1  UNL1       -0.0432
     15 C           2.6350   -0.7725    0.0000 C.3     1  UNL1       -0.0422
     16 C           4.8256    0.7057    0.0000 C.3     1  UNL1       -0.0405
     17 C           3.6030    2.7897    0.0000 C.3     1  UNL1        0.1195
     18 C           4.4934   -1.8646    0.0000 C.3     1  UNL1        0.1323
     19 C           2.6183   -1.8573    0.0000 C.3     1  UNL1       -0.0164
     20 C           4.0472    2.2806    0.0000 C.3     1  UNL1       -0.0437
     21 C           3.3163    1.9552    0.0000 C.3     1  UNL1       -0.0518
     22 C           3.5691    1.5678    0.0000 C.3     1  UNL1       -0.0457
     23 C           3.5538   -2.4070    0.0000 C.2     1  UNL1       -0.0329
     24 C           4.9691    3.1557    0.0000 C.3     1  UNL1       -0.0557
     25 C           2.0000    2.9568    0.0000 C.3     1  UNL1        0.0271
     26 C           2.4051    3.8645    0.0000 C.3     1  UNL1        0.0626
     27 C           3.5499   -3.4070    0.0000 C.2     1  UNL1       -0.0957
     28 C           5.3652   -3.3612    0.0000 C.2     1  UNL1        0.3045
     29 C           6.2331   -3.8579    0.0000 C.3     1  UNL1        0.0333
     30 H           3.0561    0.0685    0.0000 H       1  UNL1        0.0315
     31 H           5.0036    1.6038    0.0000 H       1  UNL1        0.0315
     32 H           5.9252   -0.5667    0.0000 H       1  UNL1        0.0604
     33 H           2.2001    0.9797    0.0000 H       1  UNL1        0.0775
     34 H           5.9907    0.6814    0.0000 H       1  UNL1        0.0293
     35 H           5.5836    1.3681    0.0000 H       1  UNL1        0.0293
     36 H           2.8052    1.3348    0.0000 H       1  UNL1        0.0272
     37 H           3.9916    1.3448    0.0000 H       1  UNL1        0.0272
     38 H           2.4350   -0.1856    0.0000 H       1  UNL1        0.0274
     39 H           2.0226   -0.8691    0.0000 H       1  UNL1        0.0274
     40 H           4.1042    3.1548    0.0000 H       1  UNL1        0.0775
     41 H           5.4079    0.4927    0.0000 H       1  UNL1        0.0273
     42 H           5.1097    1.2568    0.0000 H       1  UNL1        0.0273
     43 H           4.4946   -2.4846    0.0000 H       1  UNL1        0.0788
     44 H           2.0778   -2.1611    0.0000 H       1  UNL1        0.0347
     45 H           4.2711    2.8587    0.0000 H       1  UNL1        0.0272
     46 H           4.1826    1.6756    0.0000 H       1  UNL1        0.0272
     47 H           3.1247    2.5449    0.0000 H       1  UNL1        0.0266
     48 H           2.7099    1.8263    0.0000 H       1  UNL1        0.0266
     49 H           3.8615    2.1145    0.0000 H       1  UNL1        0.0271
     50 H           2.9935    1.7983    0.0000 H       1  UNL1        0.0271
     51 H           5.5060    2.8457    0.0000 H       1  UNL1        0.0236
     52 H           5.2791    3.6926    0.0000 H       1  UNL1        0.0236
     53 H           4.4321    3.4657    0.0000 H       1  UNL1        0.0236
     54 H           1.4635    3.2675    0.0000 H       1  UNL1        0.0451
     55 H           1.6346    2.4559    0.0000 H       1  UNL1        0.0451
     56 H           2.5338    4.4710    0.0000 H       1  UNL1        0.0573
     57 H           1.8155    4.0563    0.0000 H       1  UNL1        0.0573
     58 H           3.0118   -3.7150    0.0000 H       1  UNL1        0.0536
     59 H           4.0856   -3.7191    0.0000 H       1  UNL1        0.0536
     60 H           5.9252   -4.3960    0.0000 H       1  UNL1        0.0342
     61 H           6.7713   -4.1658    0.0000 H       1  UNL1        0.0342
     62 H           6.5411   -3.3197    0.0000 H       1  UNL1        0.0342
@<TRIPOS>BOND
     1     1    10    1
     2     1    12    1
     3     2    17    1
     4     2    26    1
     5     3    18    1
     6     3    28    1
     7     4    28    2
     8     5    12    1
     9     5    17    1
    10     5    25    1
    11     6     7    1
    12     6     9    1
    13     6    12    1
    14     6    14    1
    15     7     8    1
    16     7    15    1
    17     7    30    1
    18     8    10    1
    19     8    16    1
    20     8    18    1
    21     9    11    1
    22     9    13    1
    23     9    31    1
    24    10    13    1
    25    10    32    1
    26    11    17    1
    27    11    20    1
    28    11    24    1
    29    12    33    1
    30    13    34    1
    31    13    35    1
    32    14    21    1
    33    14    36    1
    34    14    37    1
    35    15    19    1
    36    15    38    1
    37    15    39    1
    38    16    22    1
    39    16    41    1
    40    16    42    1
    41    17    40    1
    42    18    23    1
    43    18    43    1
    44    19    22    1
    45    19    23    1
    46    19    44    1
    47    20    21    1
    48    20    45    1
    49    20    46    1
    50    21    47    1
    51    21    48    1
    52    22    49    1
    53    22    50    1
    54    23    27    2
    55    24    51    1
    56    24    52    1
    57    24    53    1
    58    25    26    1
    59    25    54    1
    60    25    55    1
    61    26    56    1
    62    26    57    1
    63    27    58    1
    64    27    59    1
    65    28    29    1
    66    29    60    1
    67    29    61    1
    68    29    62    1
