@<TRIPOS>MOLECULE
IMPHY014934
 82 86 0 0 0
SMALL
GASTEIGER

@<TRIPOS>ATOM
      1 O           4.3792    0.4198    0.0000 O.3     1  UNL1       -0.3911
      2 O           2.5357   -2.6896    0.0000 O.3     1  UNL1       -0.3912
      3 C           7.0628   -1.1372    0.0000 C.3     1  UNL1       -0.0230
      4 C           7.9288   -0.6372    0.0000 C.3     1  UNL1       -0.0233
      5 C           6.1968   -0.6372    0.0000 C.3     1  UNL1       -0.0271
      6 C           7.9288    0.3628    0.0000 C.3     1  UNL1       -0.0313
      7 C           5.2868   -1.1441    0.0000 C.3     1  UNL1        0.0007
      8 C           8.8228    0.8974    0.0000 C.3     1  UNL1       -0.0258
      9 C           9.7288    0.3836    0.0000 C.3     1  UNL1       -0.0284
     10 C           5.2787   -2.1857    0.0000 C.3     1  UNL1       -0.0255
     11 C           7.0789   -2.1788    0.0000 C.3     1  UNL1       -0.0466
     12 C           8.8228   -1.1719    0.0000 C.3     1  UNL1       -0.0464
     13 C           6.1968    0.3628    0.0000 C.3     1  UNL1       -0.0488
     14 C           7.0628    0.8628    0.0000 C.3     1  UNL1       -0.0491
     15 C           9.7288   -0.6581    0.0000 C.3     1  UNL1       -0.0468
     16 C           6.1808   -2.7065    0.0000 C.3     1  UNL1       -0.0485
     17 C           9.0329    1.9113    0.0000 C.3     1  UNL1       -0.0168
     18 C           4.3433   -2.7354    0.0000 C.3     1  UNL1       -0.0054
     19 C           4.3599   -0.5800    0.0000 C.3     1  UNL1        0.0635
     20 C           7.7056   -1.9033    0.0000 C.3     1  UNL1       -0.0588
     21 C           8.2709   -1.5769    0.0000 C.3     1  UNL1       -0.0588
     22 C          10.4911    1.0843    0.0000 C.3     1  UNL1       -0.0468
     23 C          10.0619    2.0266    0.0000 C.3     1  UNL1       -0.0457
     24 C           5.2945   -0.1441    0.0000 C.3     1  UNL1       -0.0567
     25 C           3.4037   -2.1929    0.0000 C.3     1  UNL1        0.0630
     26 C           3.4120   -1.1080    0.0000 C.3     1  UNL1        0.0003
     27 C          10.5987   -0.1097    0.0000 C.3     1  UNL1       -0.0593
     28 C           3.8467   -3.6034    0.0000 C.3     1  UNL1       -0.0572
     29 C           4.8466   -3.5995    0.0000 C.3     1  UNL1       -0.0572
     30 C           8.3593    2.6505    0.0000 C.2     1  UNL1       -0.0763
     31 C           8.6626    3.6034    0.0000 C.3     1  UNL1       -0.0438
     32 C           7.3824    2.4367    0.0000 C.2     1  UNL1       -0.0994
     33 H           6.9329   -0.2122    0.0000 H       1  UNL1        0.0312
     34 H           7.9223    1.2127    0.0000 H       1  UNL1        0.0309
     35 H           8.1300    1.3900    0.0000 H       1  UNL1        0.0315
     36 H           5.2820   -3.0357    0.0000 H       1  UNL1        0.0313
     37 H           7.2969   -2.7592    0.0000 H       1  UNL1        0.0271
     38 H           7.6880   -2.0632    0.0000 H       1  UNL1        0.0271
     39 H           8.4182   -1.6417    0.0000 H       1  UNL1        0.0271
     40 H           9.2164   -1.6509    0.0000 H       1  UNL1        0.0271
     41 H           5.9847    0.9454    0.0000 H       1  UNL1        0.0268
     42 H           5.5862    0.2551    0.0000 H       1  UNL1        0.0268
     43 H           7.4613    1.3377    0.0000 H       1  UNL1        0.0268
     44 H           6.6643    1.3377    0.0000 H       1  UNL1        0.0268
     45 H           9.9379   -1.2418    0.0000 H       1  UNL1        0.0271
     46 H          10.3397   -0.5520    0.0000 H       1  UNL1        0.0271
     47 H           5.7835   -3.1825    0.0000 H       1  UNL1        0.0268
     48 H           6.5818   -3.1794    0.0000 H       1  UNL1        0.0268
     49 H           9.2513    2.4916    0.0000 H       1  UNL1        0.0348
     50 H           3.8284   -0.2607    0.0000 H       1  UNL1        0.0600
     51 H           7.2306   -2.3018    0.0000 H       1  UNL1        0.0235
     52 H           8.1041   -2.3782    0.0000 H       1  UNL1        0.0235
     53 H           8.1805   -1.5048    0.0000 H       1  UNL1        0.0235
     54 H           7.6884   -1.7890    0.0000 H       1  UNL1        0.0235
     55 H           8.4830   -2.1595    0.0000 H       1  UNL1        0.0235
     56 H           8.8535   -1.3648    0.0000 H       1  UNL1        0.0235
     57 H          10.8604    0.5863    0.0000 H       1  UNL1        0.0271
     58 H          11.0252    1.3992    0.0000 H       1  UNL1        0.0271
     59 H          10.6500    2.2229    0.0000 H       1  UNL1        0.0271
     60 H           9.9285    2.6321    0.0000 H       1  UNL1        0.0271
     61 H           5.9145   -0.1489    0.0000 H       1  UNL1        0.0236
     62 H           5.2993    0.4759    0.0000 H       1  UNL1        0.0236
     63 H           4.6745   -0.1393    0.0000 H       1  UNL1        0.0236
     64 H           3.4025   -2.8129    0.0000 H       1  UNL1        0.0599
     65 H           3.2075   -0.5227    0.0000 H       1  UNL1        0.0315
     66 H           2.8004   -1.2093    0.0000 H       1  UNL1        0.0315
     67 H          10.2928   -0.6490    0.0000 H       1  UNL1        0.0235
     68 H          11.1380   -0.4156    0.0000 H       1  UNL1        0.0235
     69 H          10.9045    0.4296    0.0000 H       1  UNL1        0.0235
     70 H           3.3085   -3.2954    0.0000 H       1  UNL1        0.0236
     71 H           3.5387   -4.1415    0.0000 H       1  UNL1        0.0236
     72 H           4.3848   -3.9113    0.0000 H       1  UNL1        0.0236
     73 H           4.3109   -3.9116    0.0000 H       1  UNL1        0.0236
     74 H           5.1587   -4.1352    0.0000 H       1  UNL1        0.0236
     75 H           5.3824   -3.2874    0.0000 H       1  UNL1        0.0236
     76 H           3.8483    0.7401    0.0000 H       1  UNL1        0.2098
     77 H           2.0000   -2.3775    0.0000 H       1  UNL1        0.2098
     78 H           9.2534    3.4153    0.0000 H       1  UNL1        0.0274
     79 H           8.8507    4.1941    0.0000 H       1  UNL1        0.0274
     80 H           8.0718    3.7914    0.0000 H       1  UNL1        0.0274
     81 H           6.9648    2.8950    0.0000 H       1  UNL1        0.0534
     82 H           7.1944    1.8459    0.0000 H       1  UNL1        0.0534
@<TRIPOS>BOND
     1     1    19    1
     2     1    76    1
     3    25     2    1
     4     2    77    1
     5     3     4    1
     6     3     5    1
     7     3    11    1
     8     3    20    1
     9     4     6    1
    10     4    12    1
    11     4    21    1
    12     5     7    1
    13     5    13    1
    14     5    33    1
    15     6     8    1
    16     6    14    1
    17     6    34    1
    18     7    10    1
    19     7    19    1
    20     7    24    1
    21     8     9    1
    22     8    17    1
    23     8    35    1
    24     9    15    1
    25     9    22    1
    26     9    27    1
    27    10    16    1
    28    10    18    1
    29    10    36    1
    30    11    16    1
    31    11    37    1
    32    11    38    1
    33    12    15    1
    34    12    39    1
    35    12    40    1
    36    13    14    1
    37    13    41    1
    38    13    42    1
    39    14    43    1
    40    14    44    1
    41    15    45    1
    42    15    46    1
    43    16    47    1
    44    16    48    1
    45    17    23    1
    46    17    30    1
    47    17    49    1
    48    18    25    1
    49    18    28    1
    50    18    29    1
    51    19    26    1
    52    19    50    1
    53    20    51    1
    54    20    52    1
    55    20    53    1
    56    21    54    1
    57    21    55    1
    58    21    56    1
    59    22    23    1
    60    22    57    1
    61    22    58    1
    62    23    59    1
    63    23    60    1
    64    24    61    1
    65    24    62    1
    66    24    63    1
    67    25    26    1
    68    25    64    1
    69    26    65    1
    70    26    66    1
    71    27    67    1
    72    27    68    1
    73    27    69    1
    74    28    70    1
    75    28    71    1
    76    28    72    1
    77    29    73    1
    78    29    74    1
    79    29    75    1
    80    30    31    1
    81    30    32    2
    82    31    78    1
    83    31    79    1
    84    31    80    1
    85    32    81    1
    86    32    82    1
