@<TRIPOS>MOLECULE
IMPHY013960
 40 42 0 0 0
SMALL
GASTEIGER

@<TRIPOS>ATOM
      1 O           6.0682   -2.3877    0.0000 O.3     1  UNL1       -0.4910
      2 O           6.9343    1.1123    0.0000 O.3     1  UNL1       -0.4910
      3 O           8.6663    2.1123    0.0000 O.3     1  UNL1       -0.5009
      4 O          10.3984    1.1123    0.0000 O.3     1  UNL1       -0.4913
      5 O           2.5381   -2.4118    0.0000 O.3     1  UNL1       -0.5066
      6 C           6.9343   -0.8877    0.0000 C.3     1  UNL1        0.0260
      7 C           6.0682   -0.3877    0.0000 C.3     1  UNL1       -0.0142
      8 C           6.9343   -1.8877    0.0000 C.3     1  UNL1        0.0968
      9 C           7.8003   -0.3877    0.0000 C.ar    1  UNL1        0.0048
     10 C           5.2022   -0.8877    0.0000 C.ar    1  UNL1       -0.0048
     11 C           5.2022   -1.8877    0.0000 C.ar    1  UNL1        0.1272
     12 C           7.8003    0.6123    0.0000 C.ar    1  UNL1        0.1685
     13 C           8.6663   -0.8877    0.0000 C.ar    1  UNL1       -0.0510
     14 C           4.3083   -0.3530    0.0000 C.ar    1  UNL1       -0.0516
     15 C           4.3083   -2.4223    0.0000 C.ar    1  UNL1        0.0218
     16 C           8.6663    1.1123    0.0000 C.ar    1  UNL1        0.2013
     17 C           9.5323   -0.3877    0.0000 C.ar    1  UNL1       -0.0158
     18 C           3.4022   -0.8669    0.0000 C.ar    1  UNL1       -0.0197
     19 C           9.5323    0.6123    0.0000 C.ar    1  UNL1        0.1650
     20 C           3.4022   -1.9085    0.0000 C.ar    1  UNL1        0.1203
     21 C           6.9343    2.1123    0.0000 C.3     1  UNL1        0.0790
     22 C          11.2644    0.6123    0.0000 C.3     1  UNL1        0.0790
     23 H           6.9343   -0.0377    0.0000 H       1  UNL1        0.0386
     24 H           6.4668    0.0873    0.0000 H       1  UNL1        0.0321
     25 H           5.6697    0.0873    0.0000 H       1  UNL1        0.0321
     26 H           7.1463   -2.4703    0.0000 H       1  UNL1        0.0703
     27 H           7.5449   -1.7800    0.0000 H       1  UNL1        0.0703
     28 H           8.6663   -1.5077    0.0000 H       1  UNL1        0.0623
     29 H           4.3154    0.2670    0.0000 H       1  UNL1        0.0623
     30 H           4.3154   -3.0423    0.0000 H       1  UNL1        0.0691
     31 H          10.0693   -0.6977    0.0000 H       1  UNL1        0.0655
     32 H           2.8665   -0.5548    0.0000 H       1  UNL1        0.0654
     33 H           9.2033    2.4223    0.0000 H       1  UNL1        0.2924
     34 H           7.5543    2.1123    0.0000 H       1  UNL1        0.0660
     35 H           6.9343    2.7323    0.0000 H       1  UNL1        0.0660
     36 H           6.3143    2.1123    0.0000 H       1  UNL1        0.0660
     37 H           2.0000   -2.1039    0.0000 H       1  UNL1        0.2921
     38 H          10.9544    0.0754    0.0000 H       1  UNL1        0.0660
     39 H          11.8013    0.3023    0.0000 H       1  UNL1        0.0660
     40 H          11.5744    1.1493    0.0000 H       1  UNL1        0.0660
@<TRIPOS>BOND
     1     1     8    1
     2     1    11    1
     3     2    12    1
     4     2    21    1
     5     3    16    1
     6     3    33    1
     7     4    19    1
     8     4    22    1
     9     5    20    1
    10     5    37    1
    11     6     7    1
    12     6     8    1
    13     6     9    1
    14     6    23    1
    15     7    10    1
    16     7    24    1
    17     7    25    1
    18     8    26    1
    19     8    27    1
    20     9    12   ar
    21     9    13   ar
    22    10    11   ar
    23    10    14   ar
    24    11    15   ar
    25    12    16   ar
    26    13    17   ar
    27    13    28    1
    28    14    18   ar
    29    14    29    1
    30    15    20   ar
    31    15    30    1
    32    16    19   ar
    33    17    19   ar
    34    17    31    1
    35    18    20   ar
    36    18    32    1
    37    21    34    1
    38    21    35    1
    39    21    36    1
    40    22    38    1
    41    22    39    1
    42    22    40    1
