@<TRIPOS>MOLECULE
IMPHY014448
 49 49 0 0 0
SMALL
GASTEIGER

@<TRIPOS>ATOM
      1 O           5.9641   -3.9330    0.0000 O.3     1  UNL1       -0.3634
      2 O           3.7320   -3.0670    0.0000 O.3     1  UNL1       -0.4458
      3 O           2.8660   -1.5670    0.0000 O.2     1  UNL1       -0.2511
      4 O           3.7320    2.9330    0.0000 O.3     1  UNL1       -0.3757
      5 C           6.4641   -3.0670    0.0000 C.3     1  UNL1        0.0899
      6 C           5.4641   -3.0670    0.0000 C.3     1  UNL1        0.1333
      7 C           7.3301   -2.5670    0.0000 C.3     1  UNL1       -0.0240
      8 C           4.5981   -2.5670    0.0000 C.3     1  UNL1        0.1922
      9 C           8.1962   -3.0670    0.0000 C.3     1  UNL1       -0.0506
     10 C           9.0622   -2.5670    0.0000 C.3     1  UNL1       -0.0530
     11 C           9.9282   -3.0670    0.0000 C.3     1  UNL1       -0.0531
     12 C          10.7942   -2.5670    0.0000 C.3     1  UNL1       -0.0533
     13 C           4.5981   -1.5670    0.0000 C.1     1  UNL1       -0.0415
     14 C          11.6603   -3.0670    0.0000 C.3     1  UNL1       -0.0559
     15 C           2.8660   -2.5670    0.0000 C.2     1  UNL1        0.3052
     16 C          12.5263   -2.5670    0.0000 C.3     1  UNL1       -0.0653
     17 C           4.5981   -0.5670    0.0000 C.1     1  UNL1       -0.0110
     18 C           2.0000   -3.0670    0.0000 C.3     1  UNL1        0.0333
     19 C           4.5981    0.4330    0.0000 C.1     1  UNL1       -0.0118
     20 C           4.5981    1.4330    0.0000 C.1     1  UNL1       -0.0529
     21 C           4.5981    2.4330    0.0000 C.3     1  UNL1        0.1348
     22 C           5.4641    2.9330    0.0000 C.2     1  UNL1       -0.0510
     23 C           5.4641    3.9330    0.0000 C.2     1  UNL1       -0.0993
     24 H           6.9025   -3.5054    0.0000 H       1  UNL1        0.0623
     25 H           5.0257   -3.5054    0.0000 H       1  UNL1        0.0670
     26 H           7.7287   -2.0920    0.0000 H       1  UNL1        0.0291
     27 H           6.9316   -2.0920    0.0000 H       1  UNL1        0.0291
     28 H           4.5981   -3.1870    0.0000 H       1  UNL1        0.0903
     29 H           7.7976   -3.5419    0.0000 H       1  UNL1        0.0266
     30 H           8.5947   -3.5419    0.0000 H       1  UNL1        0.0266
     31 H           9.4607   -2.0920    0.0000 H       1  UNL1        0.0265
     32 H           8.6636   -2.0920    0.0000 H       1  UNL1        0.0265
     33 H           9.5297   -3.5419    0.0000 H       1  UNL1        0.0265
     34 H          10.3267   -3.5419    0.0000 H       1  UNL1        0.0265
     35 H          11.1928   -2.0920    0.0000 H       1  UNL1        0.0265
     36 H          10.3957   -2.0920    0.0000 H       1  UNL1        0.0265
     37 H          11.2617   -3.5419    0.0000 H       1  UNL1        0.0263
     38 H          12.0588   -3.5419    0.0000 H       1  UNL1        0.0263
     39 H          12.8363   -3.1039    0.0000 H       1  UNL1        0.0230
     40 H          13.0632   -2.2570    0.0000 H       1  UNL1        0.0230
     41 H          12.2163   -2.0300    0.0000 H       1  UNL1        0.0230
     42 H           1.6900   -2.5300    0.0000 H       1  UNL1        0.0342
     43 H           1.4631   -3.3770    0.0000 H       1  UNL1        0.0342
     44 H           2.3100   -3.6039    0.0000 H       1  UNL1        0.0342
     45 H           4.5981    3.0530    0.0000 H       1  UNL1        0.0777
     46 H           6.0010    2.6230    0.0000 H       1  UNL1        0.0601
     47 H           3.7320    3.5530    0.0000 H       1  UNL1        0.2114
     48 H           6.0010    4.2430    0.0000 H       1  UNL1        0.0533
     49 H           4.9272    4.2430    0.0000 H       1  UNL1        0.0533
@<TRIPOS>BOND
     1     1     5    1
     2     1     6    1
     3     2     8    1
     4     2    15    1
     5     3    15    2
     6     4    21    1
     7     4    47    1
     8     5     6    1
     9     5     7    1
    10     5    24    1
    11     6     8    1
    12     6    25    1
    13     7     9    1
    14     7    26    1
    15     7    27    1
    16     8    13    1
    17     8    28    1
    18     9    10    1
    19     9    29    1
    20     9    30    1
    21    10    11    1
    22    10    31    1
    23    10    32    1
    24    11    12    1
    25    11    33    1
    26    11    34    1
    27    12    14    1
    28    12    35    1
    29    12    36    1
    30    13    17    3
    31    14    16    1
    32    14    37    1
    33    14    38    1
    34    15    18    1
    35    16    39    1
    36    16    40    1
    37    16    41    1
    38    17    19    1
    39    18    42    1
    40    18    43    1
    41    18    44    1
    42    19    20    3
    43    20    21    1
    44    21    22    1
    45    21    45    1
    46    22    23    2
    47    22    46    1
    48    23    48    1
    49    23    49    1
