@<TRIPOS>MOLECULE
IMPHY008746
 74 77 0 0 0
SMALL
GASTEIGER

@<TRIPOS>ATOM
      1 O           9.6005    0.8736    0.0000 O.3     1  UNL1       -0.3886
      2 O           5.6489   -4.1403    0.0000 O.3     1  UNL1       -0.3875
      3 O           2.0000   -3.1234    0.0000 O.2     1  UNL1       -0.2927
      4 C           7.3931   -0.0710    0.0000 C.3     1  UNL1       -0.0235
      5 C           7.3931   -1.0710    0.0000 C.3     1  UNL1       -0.0321
      6 C           6.5271   -1.5710    0.0000 C.3     1  UNL1       -0.0314
      7 C           5.6610   -1.0710    0.0000 C.3     1  UNL1       -0.0286
      8 C           8.3393    0.2337    0.0000 C.3     1  UNL1       -0.0067
      9 C           6.5271    0.4290    0.0000 C.3     1  UNL1       -0.0467
     10 C           8.3393   -1.3758    0.0000 C.3     1  UNL1       -0.0491
     11 C           4.7510   -1.5779    0.0000 C.3     1  UNL1       -0.0048
     12 C           5.6610   -0.0710    0.0000 C.3     1  UNL1       -0.0486
     13 C           8.9229   -0.5710    0.0000 C.3     1  UNL1       -0.0468
     14 C           6.5431   -2.6125    0.0000 C.3     1  UNL1       -0.0196
     15 C           8.6500    1.1842    0.0000 C.3     1  UNL1        0.0666
     16 C           7.3931    0.9290    0.0000 C.3     1  UNL1       -0.0590
     17 C           4.7430   -2.6195    0.0000 C.2     1  UNL1       -0.0320
     18 C           5.6451   -3.1403    0.0000 C.3     1  UNL1        0.0774
     19 C           3.8242   -1.0138    0.0000 C.3     1  UNL1       -0.0366
     20 C           4.7587   -0.5779    0.0000 C.3     1  UNL1       -0.0555
     21 C           8.9606    2.1347    0.0000 C.3     1  UNL1       -0.0240
     22 C           7.6994    1.4949    0.0000 C.3     1  UNL1       -0.0358
     23 C           2.8763   -1.5418    0.0000 C.3     1  UNL1        0.0107
     24 C           3.8076   -3.1692    0.0000 C.2     1  UNL1       -0.0170
     25 C           2.8680   -2.6267    0.0000 C.2     1  UNL1        0.1562
     26 C           9.9391    2.3410    0.0000 C.3     1  UNL1       -0.0502
     27 C          10.2498    3.2915    0.0000 C.3     1  UNL1       -0.0506
     28 C          11.2283    3.4977    0.0000 C.3     1  UNL1       -0.0467
     29 C          11.5390    4.4482    0.0000 C.3     1  UNL1       -0.0627
     30 C          11.8961    2.7534    0.0000 C.3     1  UNL1       -0.0627
     31 H           7.4830   -1.9163    0.0000 H       1  UNL1        0.0309
     32 H           7.2664   -1.9904    0.0000 H       1  UNL1        0.0307
     33 H           6.3972   -0.6460    0.0000 H       1  UNL1        0.0312
     34 H           9.1790    0.3656    0.0000 H       1  UNL1        0.0334
     35 H           6.9256    0.9039    0.0000 H       1  UNL1        0.0271
     36 H           6.1285    0.9039    0.0000 H       1  UNL1        0.0271
     37 H           8.0883   -1.9427    0.0000 H       1  UNL1        0.0268
     38 H           8.8767   -1.6850    0.0000 H       1  UNL1        0.0268
     39 H           5.4490    0.5116    0.0000 H       1  UNL1        0.0268
     40 H           5.0504   -0.1787    0.0000 H       1  UNL1        0.0268
     41 H           9.3838   -0.9858    0.0000 H       1  UNL1        0.0269
     42 H           9.3838   -0.1563    0.0000 H       1  UNL1        0.0269
     43 H           6.7612   -3.1929    0.0000 H       1  UNL1        0.0296
     44 H           7.1523   -2.4970    0.0000 H       1  UNL1        0.0296
     45 H           8.0131    0.9290    0.0000 H       1  UNL1        0.0235
     46 H           7.3931    1.5490    0.0000 H       1  UNL1        0.0235
     47 H           6.7731    0.9290    0.0000 H       1  UNL1        0.0235
     48 H           5.1087   -3.4513    0.0000 H       1  UNL1        0.0641
     49 H           4.2324   -0.5471    0.0000 H       1  UNL1        0.0278
     50 H           3.4343   -0.5318    0.0000 H       1  UNL1        0.0278
     51 H           5.3787   -0.5827    0.0000 H       1  UNL1        0.0238
     52 H           4.7635    0.0421    0.0000 H       1  UNL1        0.0238
     53 H           4.1388   -0.5731    0.0000 H       1  UNL1        0.0238
     54 H           8.9401    2.7544    0.0000 H       1  UNL1        0.0293
     55 H           8.3468    2.2221    0.0000 H       1  UNL1        0.0293
     56 H           7.8921    2.0842    0.0000 H       1  UNL1        0.0257
     57 H           7.1101    1.6875    0.0000 H       1  UNL1        0.0257
     58 H           7.5068    0.9056    0.0000 H       1  UNL1        0.0257
     59 H           2.6718   -0.9565    0.0000 H       1  UNL1        0.0345
     60 H           2.2647   -1.6431    0.0000 H       1  UNL1        0.0345
     61 H           3.8100   -3.7892    0.0000 H       1  UNL1        0.0653
     62 H          10.0620    1.2876    0.0000 H       1  UNL1        0.2102
     63 H           9.9597    1.7213    0.0000 H       1  UNL1        0.0266
     64 H          10.5530    2.2536    0.0000 H       1  UNL1        0.0266
     65 H           6.1871   -4.4482    0.0000 H       1  UNL1        0.2102
     66 H          10.2292    3.9111    0.0000 H       1  UNL1        0.0268
     67 H           9.6360    3.3788    0.0000 H       1  UNL1        0.0268
     68 H          11.0357    2.9084    0.0000 H       1  UNL1        0.0295
     69 H          11.4347    2.3393    0.0000 H       1  UNL1        0.0232
     70 H          12.3102    2.2919    0.0000 H       1  UNL1        0.0232
     71 H          12.3576    3.1675    0.0000 H       1  UNL1        0.0232
     72 H          12.1283    4.2556    0.0000 H       1  UNL1        0.0232
     73 H          11.7316    5.0375    0.0000 H       1  UNL1        0.0232
     74 H          10.9496    4.6408    0.0000 H       1  UNL1        0.0232
@<TRIPOS>BOND
     1     1    15    1
     2     1    62    1
     3    18     2    1
     4     2    65    1
     5     3    25    2
     6     4     5    1
     7     4     8    1
     8     4     9    1
     9     4    16    1
    10     5     6    1
    11     5    10    1
    12     5    31    1
    13     6     7    1
    14     6    14    1
    15     6    32    1
    16     7    11    1
    17     7    12    1
    18     7    33    1
    19     8    13    1
    20     8    15    1
    21     8    34    1
    22     9    12    1
    23     9    35    1
    24     9    36    1
    25    10    13    1
    26    10    37    1
    27    10    38    1
    28    11    17    1
    29    11    19    1
    30    11    20    1
    31    12    39    1
    32    12    40    1
    33    13    41    1
    34    13    42    1
    35    14    18    1
    36    14    43    1
    37    14    44    1
    38    15    21    1
    39    15    22    1
    40    16    45    1
    41    16    46    1
    42    16    47    1
    43    17    18    1
    44    17    24    2
    45    18    48    1
    46    19    23    1
    47    19    49    1
    48    19    50    1
    49    20    51    1
    50    20    52    1
    51    20    53    1
    52    21    26    1
    53    21    54    1
    54    21    55    1
    55    22    56    1
    56    22    57    1
    57    22    58    1
    58    23    25    1
    59    23    59    1
    60    23    60    1
    61    24    25    1
    62    24    61    1
    63    26    27    1
    64    26    63    1
    65    26    64    1
    66    27    28    1
    67    27    66    1
    68    27    67    1
    69    28    29    1
    70    28    30    1
    71    28    68    1
    72    29    72    1
    73    29    73    1
    74    29    74    1
    75    30    69    1
    76    30    70    1
    77    30    71    1
