@<TRIPOS>MOLECULE
IMPHY002674
 41 46 0 0 0
SMALL
GASTEIGER

@<TRIPOS>ATOM
      1 O           2.9950    3.5673    0.0000 O.3     1  UNL1       -0.4518
      2 O           5.5740   -3.5278    0.0000 O.3     1  UNL1       -0.4526
      3 O           4.0684   -4.4125    0.0000 O.3     1  UNL1       -0.4526
      4 O           4.4403    4.4167    0.0000 O.3     1  UNL1       -0.4526
      5 N           2.9180    0.3368    0.0000 N.ar    1  UNL1       -0.1959
      6 C           3.7841   -0.1632    0.0000 C.ar    1  UNL1        0.2188
      7 C           2.0080   -0.1700    0.0000 C.3     1  UNL1        0.1551
      8 C           2.0000   -1.2116    0.0000 C.3     1  UNL1        0.0330
      9 C           3.8001   -1.2047    0.0000 C.ar    1  UNL1        0.0536
     10 C           2.9021   -1.7324    0.0000 C.ar    1  UNL1       -0.0243
     11 C           4.6501    0.3368    0.0000 C.ar    1  UNL1        0.0293
     12 C           4.6501    1.3368    0.0000 C.ar    1  UNL1        0.0007
     13 C           3.7841    1.8368    0.0000 C.ar    1  UNL1        0.0914
     14 C           2.9180    1.3368    0.0000 C.ar    1  UNL1        0.1831
     15 C           4.7520   -1.7253    0.0000 C.ar    1  UNL1       -0.0024
     16 C           2.8937   -2.8174    0.0000 C.ar    1  UNL1       -0.0120
     17 C           3.7680    2.8783    0.0000 C.ar    1  UNL1        0.1796
     18 C           4.7688   -2.8102    0.0000 C.ar    1  UNL1        0.1670
     19 C           3.8334   -3.3599    0.0000 C.ar    1  UNL1        0.1665
     20 C           5.5161   -0.1632    0.0000 C.3     1  UNL1       -0.0329
     21 C           5.5601    1.8437    0.0000 C.ar    1  UNL1       -0.0497
     22 C           4.6660    3.4061    0.0000 C.ar    1  UNL1        0.1671
     23 C           5.5681    2.8853    0.0000 C.ar    1  UNL1       -0.0155
     24 C           5.1420   -4.5161    0.0000 C.3     1  UNL1        0.2332
     25 C           3.4096    4.5161    0.0000 C.3     1  UNL1        0.2333
     26 H           1.8035    0.4153    0.0000 H       1  UNL1        0.1034
     27 H           1.3964   -0.2714    0.0000 H       1  UNL1        0.1034
     28 H           1.3900   -1.1008    0.0000 H       1  UNL1        0.0375
     29 H           1.7864   -1.7937    0.0000 H       1  UNL1        0.0375
     30 H           2.3811    1.6468    0.0000 H       1  UNL1        0.1384
     31 H           5.2829   -1.4050    0.0000 H       1  UNL1        0.0663
     32 H           2.3556   -3.1253    0.0000 H       1  UNL1        0.0658
     33 H           5.2061   -0.7001    0.0000 H       1  UNL1        0.0280
     34 H           6.0530   -0.4732    0.0000 H       1  UNL1        0.0280
     35 H           5.8261    0.3738    0.0000 H       1  UNL1        0.0280
     36 H           6.0934    1.5275    0.0000 H       1  UNL1        0.0625
     37 H           6.1062    3.1932    0.0000 H       1  UNL1        0.0655
     38 H           5.0180   -5.1235    0.0000 H       1  UNL1        0.1166
     39 H           5.7331   -4.7033    0.0000 H       1  UNL1        0.1166
     40 H           3.5337    5.1235    0.0000 H       1  UNL1        0.1166
     41 H           2.8186    4.7033    0.0000 H       1  UNL1        0.1166
@<TRIPOS>UNITY_ATOM_ATTR
5 1
charge 1
@<TRIPOS>BOND
     1     1    17    1
     2     1    25    1
     3     2    18    1
     4     2    24    1
     5     3    19    1
     6     3    24    1
     7     4    22    1
     8     4    25    1
     9     5     6   ar
    10     5     7    1
    11     5    14   ar
    12     6     9    1
    13     6    11   ar
    14     7     8    1
    15     7    26    1
    16     7    27    1
    17     8    10    1
    18     8    28    1
    19     8    29    1
    20     9    10   ar
    21     9    15   ar
    22    10    16   ar
    23    11    12   ar
    24    11    20    1
    25    12    13   ar
    26    12    21   ar
    27    13    14   ar
    28    13    17   ar
    29    14    30    1
    30    15    18   ar
    31    15    31    1
    32    16    19   ar
    33    16    32    1
    34    17    22   ar
    35    18    19   ar
    36    20    33    1
    37    20    34    1
    38    20    35    1
    39    21    23   ar
    40    21    36    1
    41    22    23   ar
    42    23    37    1
    43    24    38    1
    44    24    39    1
    45    25    40    1
    46    25    41    1
