@<TRIPOS>MOLECULE
IMPHY017202
 24 23 0 0 0
SMALL
GASTEIGER

@<TRIPOS>ATOM
      1 O           2.5369    0.2500    0.0000 O.3     1  UNL1       -0.3950
      2 C           5.1350   -0.2500    0.0000 C.3     1  UNL1       -0.0395
      3 C           6.0010    0.2500    0.0000 C.3     1  UNL1       -0.0441
      4 C           4.2690    0.2500    0.0000 C.3     1  UNL1       -0.0269
      5 C           5.1350   -1.2500    0.0000 C.3     1  UNL1       -0.0621
      6 C           6.8671   -0.2500    0.0000 C.3     1  UNL1       -0.0624
      7 C           6.0010    1.2500    0.0000 C.3     1  UNL1       -0.0624
      8 C           3.4030   -0.2500    0.0000 C.3     1  UNL1        0.0445
      9 H           5.6720   -0.5600    0.0000 H       1  UNL1        0.0301
     10 H           6.5380    0.5600    0.0000 H       1  UNL1        0.0298
     11 H           4.6675    0.7249    0.0000 H       1  UNL1        0.0290
     12 H           3.8705    0.7249    0.0000 H       1  UNL1        0.0290
     13 H           4.5150   -1.2500    0.0000 H       1  UNL1        0.0233
     14 H           5.1350   -1.8700    0.0000 H       1  UNL1        0.0233
     15 H           5.7550   -1.2500    0.0000 H       1  UNL1        0.0233
     16 H           6.5571   -0.7869    0.0000 H       1  UNL1        0.0232
     17 H           7.4040   -0.5600    0.0000 H       1  UNL1        0.0232
     18 H           7.1771    0.2869    0.0000 H       1  UNL1        0.0232
     19 H           6.6210    1.2500    0.0000 H       1  UNL1        0.0232
     20 H           6.0010    1.8700    0.0000 H       1  UNL1        0.0232
     21 H           5.3810    1.2500    0.0000 H       1  UNL1        0.0232
     22 H           3.0044   -0.7249    0.0000 H       1  UNL1        0.0557
     23 H           3.8015   -0.7249    0.0000 H       1  UNL1        0.0557
     24 H           2.0000   -0.0600    0.0000 H       1  UNL1        0.2094
@<TRIPOS>BOND
     1     1     8    1
     2     1    24    1
     3     2     3    1
     4     2     4    1
     5     2     5    1
     6     2     9    1
     7     3     6    1
     8     3     7    1
     9     3    10    1
    10     4     8    1
    11     4    11    1
    12     4    12    1
    13     5    13    1
    14     5    14    1
    15     5    15    1
    16     6    16    1
    17     6    17    1
    18     6    18    1
    19     7    19    1
    20     7    20    1
    21     7    21    1
    22     8    22    1
    23     8    23    1
