@<TRIPOS>MOLECULE
IMPHY000078
 24 25 0 0 0
SMALL
GASTEIGER

@<TRIPOS>ATOM
      1 C           3.7320    0.0000    0.0000 C.ar    1  UNL1       -0.0121
      2 C           3.7320    1.0000    0.0000 C.ar    1  UNL1       -0.0174
      3 C           2.8660   -0.5000    0.0000 C.ar    1  UNL1       -0.0425
      4 C           4.6260   -0.5347    0.0000 C.ar    1  UNL1       -0.0425
      5 C           2.8660    1.5000    0.0000 C.ar    1  UNL1       -0.0540
      6 C           4.6260    1.5346    0.0000 C.ar    1  UNL1       -0.0540
      7 C           2.0000    0.0000    0.0000 C.ar    1  UNL1       -0.0582
      8 C           5.5321   -0.0208    0.0000 C.ar    1  UNL1       -0.0582
      9 C           2.0000    1.0000    0.0000 C.ar    1  UNL1       -0.0609
     10 C           5.5321    1.0208    0.0000 C.ar    1  UNL1       -0.0609
     11 C           2.8660   -1.5000    0.0000 C.3     1  UNL1       -0.0391
     12 C           4.6144   -1.5346    0.0000 C.3     1  UNL1       -0.0391
     13 H           2.8660    2.1200    0.0000 H       1  UNL1        0.0624
     14 H           4.6188    2.1546    0.0000 H       1  UNL1        0.0624
     15 H           1.4631   -0.3100    0.0000 H       1  UNL1        0.0620
     16 H           6.0678   -0.3329    0.0000 H       1  UNL1        0.0620
     17 H           2.2460   -1.5000    0.0000 H       1  UNL1        0.0278
     18 H           2.8660   -2.1200    0.0000 H       1  UNL1        0.0278
     19 H           3.4860   -1.5000    0.0000 H       1  UNL1        0.0278
     20 H           3.9945   -1.5275    0.0000 H       1  UNL1        0.0278
     21 H           4.6073   -2.1546    0.0000 H       1  UNL1        0.0278
     22 H           5.2344   -1.5418    0.0000 H       1  UNL1        0.0278
     23 H           1.4631    1.3100    0.0000 H       1  UNL1        0.0618
     24 H           6.0678    1.3328    0.0000 H       1  UNL1        0.0618
@<TRIPOS>BOND
     1     1     2   ar
     2     1     3   ar
     3     1     4   ar
     4     2     5   ar
     5     2     6   ar
     6     3     7   ar
     7     3    11    1
     8     4     8   ar
     9     4    12    1
    10     5     9   ar
    11     5    13    1
    12     6    10   ar
    13     6    14    1
    14     7     9   ar
    15     7    15    1
    16     8    10   ar
    17     8    16    1
    18     9    23    1
    19    10    24    1
    20    11    17    1
    21    11    18    1
    22    11    19    1
    23    12    20    1
    24    12    21    1
    25    12    22    1
