@<TRIPOS>MOLECULE
IMPHY015678
 73 75 0 0 0
SMALL
GASTEIGER

@<TRIPOS>ATOM
      1 O           5.7867    2.3099    0.0000 O.2     1  UNL1       -0.2971
      2 O           5.6646    5.0995    0.0000 O.2     1  UNL1       -0.2977
      3 O           6.3444   -1.7895    0.0000 O.3     1  UNL1       -0.5055
      4 O           2.8804   -1.7895    0.0000 O.3     1  UNL1       -0.5055
      5 O           4.6124   -4.7895    0.0000 O.3     1  UNL1       -0.5051
      6 O           2.8804   -4.7895    0.0000 O.2     1  UNL1       -0.2955
      7 O           6.3444   -4.7895    0.0000 O.2     1  UNL1       -0.2955
      8 C           4.4192    1.4056    0.0000 C.3     1  UNL1       -0.0223
      9 C           3.5205    1.8440    0.0000 C.3     1  UNL1       -0.0280
     10 C           4.3495    2.4031    0.0000 C.3     1  UNL1       -0.0312
     11 C           4.9784    0.5765    0.0000 C.3     1  UNL1        0.0270
     12 C           5.4784   -0.2895    0.0000 C.3     1  UNL1       -0.0149
     13 C           4.7878    3.3019    0.0000 C.3     1  UNL1       -0.0428
     14 C           2.6914    1.2848    0.0000 C.3     1  UNL1       -0.0593
     15 C           2.9613    2.6730    0.0000 C.3     1  UNL1       -0.0593
     16 C           6.4566   -0.0816    0.0000 C.3     1  UNL1       -0.0397
     17 C           5.6476    1.3197    0.0000 C.2     1  UNL1        0.1373
     18 C           4.6124   -0.7895    0.0000 C.3     1  UNL1       -0.0026
     19 C           6.5611    0.9129    0.0000 C.3     1  UNL1        0.0067
     20 C           5.6863   -1.2676    0.0000 C.3     1  UNL1       -0.0583
     21 C           5.7853    3.3717    0.0000 C.3     1  UNL1        0.0058
     22 C           3.6276   -0.9632    0.0000 C.3     1  UNL1       -0.0431
     23 C           4.6124   -1.7895    0.0000 C.ar    1  UNL1        0.0406
     24 C           2.9848   -0.1971    0.0000 C.3     1  UNL1       -0.0462
     25 C           6.2237    4.2705    0.0000 C.2     1  UNL1        0.1303
     26 C           5.4784   -2.2895    0.0000 C.ar    1  UNL1        0.1375
     27 C           3.7464   -2.2895    0.0000 C.ar    1  UNL1        0.1375
     28 C           2.0000   -0.3708    0.0000 C.3     1  UNL1       -0.0626
     29 C           3.3268    0.7426    0.0000 C.3     1  UNL1       -0.0626
     30 C           7.2213    4.3403    0.0000 C.3     1  UNL1       -0.0061
     31 C           5.4784   -3.2895    0.0000 C.ar    1  UNL1        0.0980
     32 C           3.7464   -3.2895    0.0000 C.ar    1  UNL1        0.0980
     33 C           4.6124   -3.7895    0.0000 C.ar    1  UNL1        0.1443
     34 C           2.8804   -3.7895    0.0000 C.2     1  UNL1        0.1573
     35 C           6.3444   -3.7895    0.0000 C.2     1  UNL1        0.1573
     36 H           3.8616    0.7641    0.0000 H       1  UNL1        0.0316
     37 H           4.9581    2.2848    0.0000 H       1  UNL1        0.0309
     38 H           4.4526    0.2480    0.0000 H       1  UNL1        0.0386
     39 H           4.8526    3.9185    0.0000 H       1  UNL1        0.0272
     40 H           4.1919    3.4728    0.0000 H       1  UNL1        0.0272
     41 H           2.3447    1.7988    0.0000 H       1  UNL1        0.0235
     42 H           2.1774    0.9381    0.0000 H       1  UNL1        0.0235
     43 H           3.0381    0.7708    0.0000 H       1  UNL1        0.0235
     44 H           3.4753    3.0197    0.0000 H       1  UNL1        0.0235
     45 H           2.6146    3.1870    0.0000 H       1  UNL1        0.0235
     46 H           2.4473    2.3263    0.0000 H       1  UNL1        0.0235
     47 H           6.5214   -0.6982    0.0000 H       1  UNL1        0.0275
     48 H           7.0766   -0.0816    0.0000 H       1  UNL1        0.0275
     49 H           4.4004   -0.2069    0.0000 H       1  UNL1        0.0357
     50 H           7.1676    0.7840    0.0000 H       1  UNL1        0.0342
     51 H           6.7527    1.5026    0.0000 H       1  UNL1        0.0342
     52 H           5.0799   -1.3966    0.0000 H       1  UNL1        0.0235
     53 H           5.8152   -1.8741    0.0000 H       1  UNL1        0.0235
     54 H           6.2928   -1.1388    0.0000 H       1  UNL1        0.0235
     55 H           5.7205    2.7551    0.0000 H       1  UNL1        0.0342
     56 H           6.3813    3.2008    0.0000 H       1  UNL1        0.0342
     57 H           3.0907   -1.2732    0.0000 H       1  UNL1        0.0274
     58 H           3.8396   -1.5458    0.0000 H       1  UNL1        0.0274
     59 H           2.5863    0.2778    0.0000 H       1  UNL1        0.0296
     60 H           1.8923    0.2398    0.0000 H       1  UNL1        0.0232
     61 H           1.3894   -0.4784    0.0000 H       1  UNL1        0.0232
     62 H           2.1077   -0.9813    0.0000 H       1  UNL1        0.0232
     63 H           3.9094    0.5305    0.0000 H       1  UNL1        0.0232
     64 H           3.5389    1.3252    0.0000 H       1  UNL1        0.0232
     65 H           2.7442    0.9546    0.0000 H       1  UNL1        0.0232
     66 H           7.2646    3.7218    0.0000 H       1  UNL1        0.0306
     67 H           7.8398    4.3835    0.0000 H       1  UNL1        0.0306
     68 H           7.1780    4.9588    0.0000 H       1  UNL1        0.0306
     69 H           6.8814   -2.0995    0.0000 H       1  UNL1        0.2922
     70 H           2.3434   -2.0995    0.0000 H       1  UNL1        0.2922
     71 H           2.3434   -3.4795    0.0000 H       1  UNL1        0.1084
     72 H           6.8814   -3.4795    0.0000 H       1  UNL1        0.1084
     73 H           4.0755   -5.0995    0.0000 H       1  UNL1        0.2922
@<TRIPOS>BOND
     1     1    17    2
     2     2    25    2
     3     3    26    1
     4     3    69    1
     5     4    27    1
     6     4    70    1
     7     5    33    1
     8     5    73    1
     9     6    34    2
    10     7    35    2
    11     8     9    1
    12     8    10    1
    13     8    11    1
    14     8    36    1
    15     9    10    1
    16     9    14    1
    17     9    15    1
    18    10    13    1
    19    10    37    1
    20    11    12    1
    21    11    17    1
    22    11    38    1
    23    12    16    1
    24    12    18    1
    25    12    20    1
    26    13    21    1
    27    13    39    1
    28    13    40    1
    29    14    41    1
    30    14    42    1
    31    14    43    1
    32    15    44    1
    33    15    45    1
    34    15    46    1
    35    16    19    1
    36    16    47    1
    37    16    48    1
    38    17    19    1
    39    18    22    1
    40    18    23    1
    41    18    49    1
    42    19    50    1
    43    19    51    1
    44    20    52    1
    45    20    53    1
    46    20    54    1
    47    21    25    1
    48    21    55    1
    49    21    56    1
    50    22    24    1
    51    22    57    1
    52    22    58    1
    53    23    26   ar
    54    23    27   ar
    55    24    28    1
    56    24    29    1
    57    24    59    1
    58    25    30    1
    59    26    31   ar
    60    27    32   ar
    61    28    60    1
    62    28    61    1
    63    28    62    1
    64    29    63    1
    65    29    64    1
    66    29    65    1
    67    30    66    1
    68    30    67    1
    69    30    68    1
    70    31    33   ar
    71    31    35    1
    72    32    33   ar
    73    32    34    1
    74    34    71    1
    75    35    72    1
