@<TRIPOS>MOLECULE
IMPHY012109
 8 8 0 0 0
SMALL
GASTEIGER

@<TRIPOS>ATOM
      1 O           2.8090   -0.7694    0.0000 O.2     1  UNL1       -0.3630
      2 N           3.6180   -0.1816    0.0000 N.ar    1  UNL1       -0.0868
      3 C           2.3090    0.7694    0.0000 C.ar    1  UNL1       -0.0030
      4 C           2.0000   -0.1816    0.0000 C.ar    1  UNL1        0.1242
      5 C           3.3090    0.7694    0.0000 C.ar    1  UNL1        0.0700
      6 H           1.9446    1.2710    0.0000 H       1  UNL1        0.0665
      7 H           1.4103   -0.3732    0.0000 H       1  UNL1        0.1057
      8 H           3.6734    1.2710    0.0000 H       1  UNL1        0.0864
@<TRIPOS>BOND
     1     1     2   ar
     2     1     4   ar
     3     2     5   ar
     4     3     4   ar
     5     3     5   ar
     6     3     6    1
     7     4     7    1
     8     5     8    1
