@<TRIPOS>MOLECULE
IMPHY002987
 33 36 0 0 0
SMALL
GASTEIGER

@<TRIPOS>ATOM
      1 O           4.3697   -0.9054    0.0000 O.3     1  UNL1       -0.4517
      2 O           5.4910   -2.2645    0.0000 O.2     1  UNL1       -0.2505
      3 N           3.6931    1.6551    0.0000 N.3     1  UNL1       -0.2919
      4 C           4.4573    0.0681    0.0000 C.3     1  UNL1        0.1518
      5 C           3.6931    0.6776    0.0000 C.3     1  UNL1        0.0545
      6 C           4.4573    2.2645    0.0000 C.3     1  UNL1        0.0183
      7 C           4.8884    1.2315    0.0000 C.3     1  UNL1        0.0086
      8 C           5.4103    0.2856    0.0000 C.2     1  UNL1       -0.0182
      9 C           2.8465    0.1888    0.0000 C.3     1  UNL1       -0.0333
     10 C           5.4103    2.0470    0.0000 C.3     1  UNL1       -0.0185
     11 C           2.8465    2.1438    0.0000 C.3     1  UNL1       -0.0004
     12 C           2.0000    0.6776    0.0000 C.3     1  UNL1       -0.0503
     13 C           5.8344    1.1663    0.0000 C.2     1  UNL1       -0.0790
     14 C           2.0000    1.6551    0.0000 C.3     1  UNL1       -0.0401
     15 C           5.9116   -0.5535    0.0000 C.3     1  UNL1        0.0698
     16 C           5.2685   -1.2896    0.0000 C.2     1  UNL1        0.3121
     17 H           3.6296   -0.1700    0.0000 H       1  UNL1        0.0505
     18 H           4.2682    3.0932    0.0000 H       1  UNL1        0.0467
     19 H           5.3900    0.8670    0.0000 H       1  UNL1        0.0323
     20 H           5.3748    1.6160    0.0000 H       1  UNL1        0.0323
     21 H           2.4480   -0.2861    0.0000 H       1  UNL1        0.0282
     22 H           3.2451   -0.2861    0.0000 H       1  UNL1        0.0282
     23 H           6.0148    2.1850    0.0000 H       1  UNL1        0.0323
     24 H           5.4103    2.6670    0.0000 H       1  UNL1        0.0323
     25 H           3.2451    2.6188    0.0000 H       1  UNL1        0.0427
     26 H           2.4480    2.6188    0.0000 H       1  UNL1        0.0427
     27 H           1.3894    0.7852    0.0000 H       1  UNL1        0.0266
     28 H           1.7880    0.0950    0.0000 H       1  UNL1        0.0266
     29 H           6.4544    1.1663    0.0000 H       1  UNL1        0.0573
     30 H           1.7880    2.2377    0.0000 H       1  UNL1        0.0278
     31 H           1.3894    1.5474    0.0000 H       1  UNL1        0.0278
     32 H           6.3334   -1.0080    0.0000 H       1  UNL1        0.0424
     33 H           6.4077   -0.1816    0.0000 H       1  UNL1        0.0424
@<TRIPOS>BOND
     1     1     4    1
     2     1    16    1
     3     2    16    2
     4     3     5    1
     5     3     6    1
     6     3    11    1
     7     4     5    1
     8     4     7    1
     9     4     8    1
    10     5     9    1
    11     5    17    1
    12     6     7    1
    13     6    10    1
    14     6    18    1
    15     7    19    1
    16     7    20    1
    17     8    13    2
    18     8    15    1
    19     9    12    1
    20     9    21    1
    21     9    22    1
    22    10    13    1
    23    10    23    1
    24    10    24    1
    25    11    14    1
    26    11    25    1
    27    11    26    1
    28    12    14    1
    29    12    27    1
    30    12    28    1
    31    13    29    1
    32    14    30    1
    33    14    31    1
    34    15    16    1
    35    15    32    1
    36    15    33    1
