@<TRIPOS>MOLECULE
IMPHY017292
 22 22 0 0 0
SMALL
GASTEIGER

@<TRIPOS>ATOM
      1 O           4.5981    0.5000    0.0000 O.2     1  UNL1       -0.4919
      2 O           4.5981    2.5000    0.0000 O.2     1  UNL1       -0.2925
      3 C           2.8660   -0.5000    0.0000 C.ar    1  UNL1       -0.0215
      4 C           3.7320   -1.0000    0.0000 C.ar    1  UNL1       -0.0545
      5 C           2.0000   -1.0000    0.0000 C.ar    1  UNL1       -0.0545
      6 C           2.8660    0.5000    0.0000 C.2     1  UNL1       -0.0096
      7 C           3.7320   -2.0000    0.0000 C.ar    1  UNL1       -0.0612
      8 C           2.0000   -2.0000    0.0000 C.ar    1  UNL1       -0.0612
      9 C           3.7320    1.0000    0.0000 C.2     1  UNL1        0.1596
     10 C           2.8660   -2.5000    0.0000 C.ar    1  UNL1       -0.0617
     11 C           3.7320    2.0000    0.0000 C.2     1  UNL1        0.1845
     12 C           5.4641    1.0000    0.0000 C.3     1  UNL1        0.0789
     13 H           2.3291    0.8100    0.0000 H       1  UNL1        0.0661
     14 H           4.2690   -0.6900    0.0000 H       1  UNL1        0.0623
     15 H           1.4631   -0.6900    0.0000 H       1  UNL1        0.0623
     16 H           4.2690   -2.3100    0.0000 H       1  UNL1        0.0618
     17 H           1.4631   -2.3100    0.0000 H       1  UNL1        0.0618
     18 H           2.8660   -3.1200    0.0000 H       1  UNL1        0.0618
     19 H           3.1951    2.3100    0.0000 H       1  UNL1        0.1114
     20 H           5.7741    0.4631    0.0000 H       1  UNL1        0.0660
     21 H           6.0010    1.3100    0.0000 H       1  UNL1        0.0660
     22 H           5.1541    1.5369    0.0000 H       1  UNL1        0.0660
@<TRIPOS>BOND
     1     1     9    1
     2     1    12    1
     3     2    11    2
     4     3     4   ar
     5     3     5   ar
     6     3     6    1
     7     4     7   ar
     8     4    14    1
     9     5     8   ar
    10     5    15    1
    11     6     9    2
    12     6    13    1
    13     7    10   ar
    14     7    16    1
    15     8    10   ar
    16     8    17    1
    17     9    11    1
    18    10    18    1
    19    11    19    1
    20    12    20    1
    21    12    21    1
    22    12    22    1
