@<TRIPOS>MOLECULE
IMPHY002776
 55 58 0 0 0
SMALL
GASTEIGER

@<TRIPOS>ATOM
      1 O           7.2544   -1.9203    0.0000 O.3     1  UNL1       -0.4607
      2 O           4.6423    1.6081    0.0000 O.3     1  UNL1       -0.3889
      3 O           6.4082    2.6459    0.0000 O.3     1  UNL1       -0.3890
      4 O           7.7230    0.6900    0.0000 O.3     1  UNL1       -0.3943
      5 O           3.7817    1.1112    0.0000 O.3     1  UNL1       -0.3834
      6 O           8.9759   -1.9531    0.0000 O.2     1  UNL1       -0.2508
      7 O           2.0000    0.1008    0.0000 O.2     1  UNL1       -0.2899
      8 C           6.3961   -0.4234    0.0000 C.3     1  UNL1        0.0403
      9 C           5.5301    0.0766    0.0000 C.3     1  UNL1        0.0076
     10 C           4.6641   -0.4234    0.0000 C.3     1  UNL1        0.0137
     11 C           7.3062    0.0835    0.0000 C.3     1  UNL1       -0.0145
     12 C           6.3961   -1.4234    0.0000 C.3     1  UNL1        0.1119
     13 C           4.6641   -1.4234    0.0000 C.3     1  UNL1       -0.0079
     14 C           5.5141    1.1181    0.0000 C.3     1  UNL1        0.0854
     15 C           7.3142    1.1251    0.0000 C.3     1  UNL1       -0.0113
     16 C           5.5301   -1.9234    0.0000 C.3     1  UNL1       -0.0079
     17 C           6.4121    1.6459    0.0000 C.3     1  UNL1        0.0842
     18 C           6.7382    0.5163    0.0000 C.3     1  UNL1        0.0538
     19 C           3.7702    0.1113    0.0000 C.3     1  UNL1        0.1232
     20 C           8.1455   -0.4447    0.0000 C.3     1  UNL1        0.0488
     21 C           4.6641    0.5766    0.0000 C.3     1  UNL1       -0.0559
     22 C           3.7702   -1.9580    0.0000 C.2     1  UNL1       -0.0654
     23 C           8.1821    1.6217    0.0000 C.3     1  UNL1       -0.0597
     24 C           8.1198   -1.4361    0.0000 C.2     1  UNL1        0.3077
     25 C           2.8641   -0.4025    0.0000 C.2     1  UNL1        0.1848
     26 C           2.8641   -1.4442    0.0000 C.2     1  UNL1       -0.0173
     27 C           3.7817   -2.9580    0.0000 C.3     1  UNL1       -0.0431
     28 H           6.2630    0.5073    0.0000 H       1  UNL1        0.0340
     29 H           8.0518    0.4915    0.0000 H       1  UNL1        0.0317
     30 H           6.3956   -2.2734    0.0000 H       1  UNL1        0.0740
     31 H           4.6706   -2.2733    0.0000 H       1  UNL1        0.0353
     32 H           5.5081    1.7381    0.0000 H       1  UNL1        0.0622
     33 H           7.3154    1.7451    0.0000 H       1  UNL1        0.0327
     34 H           5.1316   -2.3983    0.0000 H       1  UNL1        0.0307
     35 H           5.9286   -2.3983    0.0000 H       1  UNL1        0.0307
     36 H           5.8734    1.9528    0.0000 H       1  UNL1        0.0622
     37 H           6.7382    1.1363    0.0000 H       1  UNL1        0.0564
     38 H           6.1276    0.6240    0.0000 H       1  UNL1        0.0564
     39 H           3.2362    0.4265    0.0000 H       1  UNL1        0.0682
     40 H           8.7526   -0.5706    0.0000 H       1  UNL1        0.0380
     41 H           8.3772    0.1303    0.0000 H       1  UNL1        0.0380
     42 H           5.2841    0.5766    0.0000 H       1  UNL1        0.0236
     43 H           4.6641    1.1966    0.0000 H       1  UNL1        0.0236
     44 H           4.0441    0.5766    0.0000 H       1  UNL1        0.0236
     45 H           8.4901    1.0836    0.0000 H       1  UNL1        0.0233
     46 H           8.7203    1.9297    0.0000 H       1  UNL1        0.0233
     47 H           7.8742    2.1599    0.0000 H       1  UNL1        0.0233
     48 H           2.3284   -1.7562    0.0000 H       1  UNL1        0.0653
     49 H           4.6352    2.2280    0.0000 H       1  UNL1        0.2099
     50 H           6.9440    2.9580    0.0000 H       1  UNL1        0.2099
     51 H           8.1215    0.2150    0.0000 H       1  UNL1        0.2094
     52 H           3.1618   -2.9651    0.0000 H       1  UNL1        0.0275
     53 H           3.7889   -3.5779    0.0000 H       1  UNL1        0.0275
     54 H           4.4017   -2.9508    0.0000 H       1  UNL1        0.0275
     55 H           3.2484    1.4274    0.0000 H       1  UNL1        0.2104
@<TRIPOS>BOND
     1     1    12    1
     2     1    24    1
     3    14     2    1
     4     2    49    1
     5    17     3    1
     6     3    50    1
     7     4    18    1
     8     4    51    1
     9    19     5    1
    10     5    55    1
    11     6    24    2
    12     7    25    2
    13     8     9    1
    14     8    11    1
    15     8    12    1
    16     8    18    1
    17     9    10    1
    18     9    14    1
    19     9    28    1
    20    10    13    1
    21    10    19    1
    22    10    21    1
    23    11    15    1
    24    11    20    1
    25    11    29    1
    26    12    16    1
    27    12    30    1
    28    13    16    1
    29    13    22    1
    30    13    31    1
    31    14    17    1
    32    14    32    1
    33    15    17    1
    34    15    23    1
    35    15    33    1
    36    16    34    1
    37    16    35    1
    38    17    36    1
    39    18    37    1
    40    18    38    1
    41    19    25    1
    42    19    39    1
    43    20    24    1
    44    20    40    1
    45    20    41    1
    46    21    42    1
    47    21    43    1
    48    21    44    1
    49    22    26    2
    50    22    27    1
    51    23    45    1
    52    23    46    1
    53    23    47    1
    54    25    26    1
    55    26    48    1
    56    27    52    1
    57    27    53    1
    58    27    54    1
