@<TRIPOS>MOLECULE
IMPHY007512
 129 133 0 0 0
SMALL
GASTEIGER

@<TRIPOS>ATOM
      1 O           6.9393   -2.2524    0.0000 O.3     1  UNL1       -0.3401
      2 O           8.6081   -0.1994    0.0000 O.3     1  UNL1       -0.3398
      3 O           5.6537   -0.7203    0.0000 O.3     1  UNL1       -0.3405
      4 O           5.2072   -2.2524    0.0000 O.3     1  UNL1       -0.3405
      5 O           9.8937   -1.7315    0.0000 O.3     1  UNL1       -0.3355
      6 O          10.2357   -0.7918    0.0000 O.3     1  UNL1       -0.3405
      7 O           5.3530    0.9854    0.0000 O.3     1  UNL1       -0.3405
      8 O           6.3378    1.1591    0.0000 O.3     1  UNL1       -0.3460
      9 O          11.5213   -2.3239    0.0000 O.3     1  UNL1       -0.3405
     10 O           6.0370    2.8648    0.0000 O.3     1  UNL1       -0.3405
     11 O           6.9393   -4.2524    0.0000 O.3     1  UNL1       -0.3841
     12 O           9.2922    1.6800    0.0000 O.3     1  UNL1       -0.3841
     13 O           5.2072   -5.2524    0.0000 O.3     1  UNL1       -0.3864
     14 O           3.6841   -1.0675    0.0000 O.3     1  UNL1       -0.3841
     15 O           3.4752   -4.2524    0.0000 O.3     1  UNL1       -0.3865
     16 O          11.2618    2.0273    0.0000 O.3     1  UNL1       -0.3864
     17 O           2.3985    0.4645    0.0000 O.3     1  UNL1       -0.3864
     18 O          12.5474    0.4952    0.0000 O.3     1  UNL1       -0.3865
     19 O           3.0826    2.3439    0.0000 O.3     1  UNL1       -0.3865
     20 O           9.4284   -4.0799    0.0000 O.3     1  UNL1       -0.3841
     21 O          10.4953   -5.1429    0.0000 O.3     1  UNL1       -0.3864
     22 O          12.4649   -4.7956    0.0000 O.3     1  UNL1       -0.3865
     23 O           8.3074    1.5064    0.0000 O.3     1  UNL1       -0.3841
     24 O           8.9914    3.3857    0.0000 O.3     1  UNL1       -0.3864
     25 O           7.7058    4.9178    0.0000 O.3     1  UNL1       -0.3865
     26 O           2.6092   -2.7524    0.0000 O.3     1  UNL1       -0.3924
     27 O          12.8481   -1.2105    0.0000 O.3     1  UNL1       -0.3924
     28 O           4.4094    3.4572    0.0000 O.3     1  UNL1       -0.3924
     29 O           7.5821   -3.0185    0.0000 O.2     1  UNL1       -0.2982
     30 O          13.7917   -3.6823    0.0000 O.3     1  UNL1       -0.3924
     31 O           6.0782    5.5102    0.0000 O.3     1  UNL1       -0.3924
     32 C           7.2813   -1.3127    0.0000 C.3     1  UNL1        0.1190
     33 C           8.2661   -1.1391    0.0000 C.3     1  UNL1        0.1231
     34 C           6.6385   -0.5467    0.0000 C.3     1  UNL1        0.1137
     35 C           8.9089   -1.9051    0.0000 C.3     1  UNL1        0.1450
     36 C           6.0733   -2.7524    0.0000 C.3     1  UNL1        0.1884
     37 C           9.5930   -0.0257    0.0000 C.3     1  UNL1        0.1885
     38 C           6.0733   -3.7524    0.0000 C.3     1  UNL1        0.1341
     39 C           5.0109    0.0457    0.0000 C.3     1  UNL1        0.1884
     40 C           6.9806    0.3930    0.0000 C.3     1  UNL1        0.0796
     41 C           9.9350    0.9140    0.0000 C.3     1  UNL1        0.1341
     42 C           5.2072   -4.2524    0.0000 C.3     1  UNL1        0.1141
     43 C           4.0261   -0.1279    0.0000 C.3     1  UNL1        0.1341
     44 C           4.3412   -3.7524    0.0000 C.3     1  UNL1        0.1119
     45 C          10.9198    1.0876    0.0000 C.3     1  UNL1        0.1141
     46 C           4.3412   -2.7524    0.0000 C.3     1  UNL1        0.1130
     47 C           3.3833    0.6381    0.0000 C.3     1  UNL1        0.1141
     48 C          11.5626    0.3216    0.0000 C.3     1  UNL1        0.1119
     49 C          11.2205   -0.6181    0.0000 C.3     1  UNL1        0.1130
     50 C           3.7254    1.5778    0.0000 C.3     1  UNL1        0.1119
     51 C          10.5365   -2.4975    0.0000 C.3     1  UNL1        0.1888
     52 C           4.7102    1.7515    0.0000 C.3     1  UNL1        0.1130
     53 C          10.1945   -3.4372    0.0000 C.3     1  UNL1        0.1341
     54 C           6.6798    2.0988    0.0000 C.3     1  UNL1        0.1880
     55 C          10.8373   -4.2032    0.0000 C.3     1  UNL1        0.1141
     56 C          11.8221   -4.0296    0.0000 C.3     1  UNL1        0.1119
     57 C           7.6646    2.2724    0.0000 C.3     1  UNL1        0.1341
     58 C          12.1641   -3.0899    0.0000 C.3     1  UNL1        0.1130
     59 C           8.0066    3.2121    0.0000 C.3     1  UNL1        0.1141
     60 C           7.3638    3.9781    0.0000 C.3     1  UNL1        0.1119
     61 C           6.3790    3.8045    0.0000 C.3     1  UNL1        0.1130
     62 C           8.5669   -2.8448    0.0000 C.2     1  UNL1        0.1516
     63 C           3.4752   -2.2524    0.0000 C.3     1  UNL1        0.0730
     64 C          11.8633   -1.3842    0.0000 C.3     1  UNL1        0.0730
     65 C           5.0522    2.6912    0.0000 C.3     1  UNL1        0.0730
     66 C          13.1489   -2.9163    0.0000 C.3     1  UNL1        0.0730
     67 C           5.7362    4.5705    0.0000 C.3     1  UNL1        0.0730
     68 H           6.6707   -1.4204    0.0000 H       1  UNL1        0.0651
     69 H           7.8676   -0.6641    0.0000 H       1  UNL1        0.0654
     70 H           6.2400   -0.0717    0.0000 H       1  UNL1        0.0647
     71 H           9.1210   -1.3225    0.0000 H       1  UNL1        0.0701
     72 H           6.0733   -2.1324    0.0000 H       1  UNL1        0.0938
     73 H           9.3809   -0.6083    0.0000 H       1  UNL1        0.0938
     74 H           6.0733   -4.3724    0.0000 H       1  UNL1        0.0671
     75 H           4.7989   -0.5369    0.0000 H       1  UNL1        0.0938
     76 H           7.5175    0.0830    0.0000 H       1  UNL1        0.0587
     77 H           7.3791    0.8680    0.0000 H       1  UNL1        0.0587
     78 H           9.3244    0.8063    0.0000 H       1  UNL1        0.0671
     79 H           4.6703   -4.5624    0.0000 H       1  UNL1        0.0648
     80 H           3.4155   -0.2356    0.0000 H       1  UNL1        0.0671
     81 H           3.8043   -3.4424    0.0000 H       1  UNL1        0.0647
     82 H          10.5212    1.5626    0.0000 H       1  UNL1        0.0648
     83 H           4.3412   -2.1324    0.0000 H       1  UNL1        0.0647
     84 H           2.9848    1.1131    0.0000 H       1  UNL1        0.0648
     85 H          11.7746    0.9042    0.0000 H       1  UNL1        0.0647
     86 H          11.0085   -1.2007    0.0000 H       1  UNL1        0.0647
     87 H           3.9374    2.1604    0.0000 H       1  UNL1        0.0647
     88 H           9.9259   -2.6052    0.0000 H       1  UNL1        0.0938
     89 H           5.3207    1.8591    0.0000 H       1  UNL1        0.0647
     90 H           9.6866   -3.0816    0.0000 H       1  UNL1        0.0671
     91 H           6.0692    1.9911    0.0000 H       1  UNL1        0.0937
     92 H          11.2358   -4.6782    0.0000 H       1  UNL1        0.0648
     93 H          12.4327   -3.9219    0.0000 H       1  UNL1        0.0647
     94 H           7.4525    1.6898    0.0000 H       1  UNL1        0.0671
     95 H          12.3762   -2.5073    0.0000 H       1  UNL1        0.0647
     96 H           8.2187    3.7947    0.0000 H       1  UNL1        0.0648
     97 H           6.9653    4.4531    0.0000 H       1  UNL1        0.0647
     98 H           5.7684    3.6968    0.0000 H       1  UNL1        0.0647
     99 H           8.6746   -3.4554    0.0000 H       1  UNL1        0.1055
    100 H           3.8737   -1.7775    0.0000 H       1  UNL1        0.0584
    101 H           3.0767   -1.7775    0.0000 H       1  UNL1        0.0584
    102 H          11.3264   -1.6942    0.0000 H       1  UNL1        0.0584
    103 H          12.0754   -1.9668    0.0000 H       1  UNL1        0.0584
    104 H           5.5891    2.3812    0.0000 H       1  UNL1        0.0584
    105 H           5.4507    3.1661    0.0000 H       1  UNL1        0.0584
    106 H           7.4762   -3.9424    0.0000 H       1  UNL1        0.2101
    107 H          13.6858   -2.6063    0.0000 H       1  UNL1        0.0584
    108 H          12.9369   -2.3336    0.0000 H       1  UNL1        0.0584
    109 H           9.5042    2.2626    0.0000 H       1  UNL1        0.2101
    110 H           4.6703   -5.5624    0.0000 H       1  UNL1        0.2100
    111 H           3.0736   -1.1752    0.0000 H       1  UNL1        0.2101
    112 H           2.9383   -3.9424    0.0000 H       1  UNL1        0.2100
    113 H          11.8724    2.1350    0.0000 H       1  UNL1        0.2100
    114 H           5.1993    4.8805    0.0000 H       1  UNL1        0.0584
    115 H           5.3377    4.0956    0.0000 H       1  UNL1        0.0584
    116 H           2.0000    0.9394    0.0000 H       1  UNL1        0.2100
    117 H          12.7594    1.0778    0.0000 H       1  UNL1        0.2100
    118 H           2.4720    2.2362    0.0000 H       1  UNL1        0.2100
    119 H           9.5361   -4.6906    0.0000 H       1  UNL1        0.2101
    120 H          10.8938   -5.6179    0.0000 H       1  UNL1        0.2100
    121 H          13.0754   -4.6880    0.0000 H       1  UNL1        0.2100
    122 H           8.0953    0.9237    0.0000 H       1  UNL1        0.2101
    123 H           9.3899    2.9108    0.0000 H       1  UNL1        0.2100
    124 H           7.3073    5.3928    0.0000 H       1  UNL1        0.2100
    125 H           2.0722   -2.4424    0.0000 H       1  UNL1        0.2095
    126 H          13.2467   -1.6855    0.0000 H       1  UNL1        0.2095
    127 H           4.6214    4.0398    0.0000 H       1  UNL1        0.2095
    128 H          14.4023   -3.5746    0.0000 H       1  UNL1        0.2095
    129 H           6.6888    5.6179    0.0000 H       1  UNL1        0.2095
@<TRIPOS>BOND
     1    32     1    1
     2    36     1    1
     3    33     2    1
     4    37     2    1
     5    34     3    1
     6    39     3    1
     7     4    36    1
     8     4    46    1
     9    35     5    1
    10    51     5    1
    11     6    37    1
    12     6    49    1
    13     7    39    1
    14     7    52    1
    15     8    40    1
    16    54     8    1
    17     9    51    1
    18     9    58    1
    19    10    54    1
    20    10    61    1
    21    38    11    1
    22    11   106    1
    23    41    12    1
    24    12   109    1
    25    42    13    1
    26    13   110    1
    27    43    14    1
    28    14   111    1
    29    44    15    1
    30    15   112    1
    31    45    16    1
    32    16   113    1
    33    47    17    1
    34    17   116    1
    35    48    18    1
    36    18   117    1
    37    50    19    1
    38    19   118    1
    39    53    20    1
    40    20   119    1
    41    55    21    1
    42    21   120    1
    43    56    22    1
    44    22   121    1
    45    57    23    1
    46    23   122    1
    47    59    24    1
    48    24   123    1
    49    60    25    1
    50    25   124    1
    51    26    63    1
    52    26   125    1
    53    27    64    1
    54    27   126    1
    55    28    65    1
    56    28   127    1
    57    29    62    2
    58    30    66    1
    59    30   128    1
    60    31    67    1
    61    31   129    1
    62    32    33    1
    63    32    34    1
    64    32    68    1
    65    33    35    1
    66    33    69    1
    67    34    40    1
    68    34    70    1
    69    35    62    1
    70    35    71    1
    71    36    38    1
    72    36    72    1
    73    37    41    1
    74    37    73    1
    75    38    42    1
    76    38    74    1
    77    39    43    1
    78    39    75    1
    79    40    76    1
    80    40    77    1
    81    41    45    1
    82    41    78    1
    83    42    44    1
    84    42    79    1
    85    43    47    1
    86    43    80    1
    87    44    46    1
    88    44    81    1
    89    45    48    1
    90    45    82    1
    91    46    63    1
    92    46    83    1
    93    47    50    1
    94    47    84    1
    95    48    49    1
    96    48    85    1
    97    49    64    1
    98    49    86    1
    99    50    52    1
   100    50    87    1
   101    51    53    1
   102    51    88    1
   103    52    65    1
   104    52    89    1
   105    53    55    1
   106    53    90    1
   107    54    57    1
   108    54    91    1
   109    55    56    1
   110    55    92    1
   111    56    58    1
   112    56    93    1
   113    57    59    1
   114    57    94    1
   115    58    66    1
   116    58    95    1
   117    59    60    1
   118    59    96    1
   119    60    61    1
   120    60    97    1
   121    61    67    1
   122    61    98    1
   123    62    99    1
   124    63   100    1
   125    63   101    1
   126    64   102    1
   127    64   103    1
   128    65   104    1
   129    65   105    1
   130    66   107    1
   131    66   108    1
   132    67   114    1
   133    67   115    1
