@<TRIPOS>MOLECULE
IMPHY013623
 44 47 0 0 0
SMALL
GASTEIGER

@<TRIPOS>ATOM
      1 O           6.5008    0.7814    0.0000 O.3     1  UNL1       -0.2185
      2 O           6.2536    1.5423    0.0000 O.3     1  UNL1       -0.2228
      3 O           3.7556    1.2259    0.0000 O.3     1  UNL1       -0.4570
      4 O           6.9381   -1.4679    0.0000 O.3     1  UNL1       -0.4525
      5 O           5.8064   -2.3182    0.0000 O.3     1  UNL1       -0.3877
      6 O           2.0000    1.1111    0.0000 O.2     1  UNL1       -0.2453
      7 O           8.2485   -0.3353    0.0000 O.2     1  UNL1       -0.2511
      8 C           5.4378    0.8566    0.0000 C.3     1  UNL1        0.0716
      9 C           6.2468    0.2688    0.0000 C.3     1  UNL1        0.1733
     10 C           5.7468    1.8077    0.0000 C.3     1  UNL1        0.1292
     11 C           6.2842   -0.7112    0.0000 C.3     1  UNL1        0.1719
     12 C           4.4941    0.5893    0.0000 C.3     1  UNL1        0.1194
     13 C           4.1123   -0.3141    0.0000 C.3     1  UNL1        0.0304
     14 C           5.5430   -1.3536    0.0000 C.3     1  UNL1        0.0985
     15 C           7.0558    0.8566    0.0000 C.2     1  UNL1       -0.0463
     16 C           4.5782   -1.1771    0.0000 C.3     1  UNL1       -0.0126
     17 C           6.7468    1.8077    0.0000 C.2     1  UNL1       -0.0503
     18 C           5.4378    2.7587    0.0000 C.3     1  UNL1       -0.0286
     19 C           7.2834   -0.6718    0.0000 C.3     1  UNL1       -0.0191
     20 C           3.1411   -0.2281    0.0000 C.2     1  UNL1        0.0362
     21 C           2.9211    0.7218    0.0000 C.2     1  UNL1        0.3353
     22 C           2.4849   -0.9827    0.0000 C.2     1  UNL1       -0.0883
     23 C           7.9202   -1.2799    0.0000 C.2     1  UNL1        0.3046
     24 C           8.5741   -2.0365    0.0000 C.3     1  UNL1        0.0333
     25 H           6.0274    1.0482    0.0000 H       1  UNL1        0.0403
     26 H           4.6280    1.1947    0.0000 H       1  UNL1        0.0745
     27 H           3.7714   -0.8320    0.0000 H       1  UNL1        0.0388
     28 H           6.1362   -1.5339    0.0000 H       1  UNL1        0.0634
     29 H           7.6454    0.6650    0.0000 H       1  UNL1        0.0601
     30 H           3.9806   -1.3423    0.0000 H       1  UNL1        0.0298
     31 H           4.6057   -1.7965    0.0000 H       1  UNL1        0.0298
     32 H           7.1112    2.3093    0.0000 H       1  UNL1        0.0599
     33 H           6.0274    2.9503    0.0000 H       1  UNL1        0.0262
     34 H           5.2462    3.3484    0.0000 H       1  UNL1        0.0262
     35 H           4.8481    2.5671    0.0000 H       1  UNL1        0.0262
     36 H           7.3079   -1.2913    0.0000 H       1  UNL1        0.0270
     37 H           7.9029   -0.6473    0.0000 H       1  UNL1        0.0270
     38 H           7.2589   -0.0522    0.0000 H       1  UNL1        0.0270
     39 H           5.3701   -2.7587    0.0000 H       1  UNL1        0.2100
     40 H           1.8763   -0.8643    0.0000 H       1  UNL1        0.0540
     41 H           2.6866   -1.5689    0.0000 H       1  UNL1        0.0540
     42 H           8.1050   -2.4419    0.0000 H       1  UNL1        0.0342
     43 H           8.9795   -2.5056    0.0000 H       1  UNL1        0.0342
     44 H           9.0432   -1.6311    0.0000 H       1  UNL1        0.0342
@<TRIPOS>BOND
     1     1     2    1
     2     1     9    1
     3     2    10    1
     4     3    12    1
     5     3    21    1
     6     4    11    1
     7     4    23    1
     8     5    14    1
     9     5    39    1
    10     6    21    2
    11     7    23    2
    12     8     9    1
    13     8    10    1
    14     8    12    1
    15     8    25    1
    16     9    11    1
    17     9    15    1
    18    10    17    1
    19    10    18    1
    20    11    14    1
    21    11    19    1
    22    12    13    1
    23    12    26    1
    24    13    16    1
    25    13    20    1
    26    13    27    1
    27    14    16    1
    28    14    28    1
    29    15    17    2
    30    15    29    1
    31    16    30    1
    32    16    31    1
    33    17    32    1
    34    18    33    1
    35    18    34    1
    36    18    35    1
    37    19    36    1
    38    19    37    1
    39    19    38    1
    40    20    21    1
    41    20    22    2
    42    22    40    1
    43    22    41    1
    44    23    24    1
    45    24    42    1
    46    24    43    1
    47    24    44    1
