@<TRIPOS>MOLECULE
IMPHY014286
 43 44 0 0 0
SMALL
GASTEIGER

@<TRIPOS>ATOM
      1 O           3.7320   -1.6429    0.0000 O.3     1  UNL1       -0.3877
      2 O           2.8660    1.8571    0.0000 O.3     1  UNL1       -0.3912
      3 C           3.7320    0.3571    0.0000 C.3     1  UNL1        0.0229
      4 C           3.7320   -0.6429    0.0000 C.3     1  UNL1        0.0769
      5 C           2.8660   -1.1429    0.0000 C.3     1  UNL1       -0.0143
      6 C           2.8660    0.8571    0.0000 C.3     1  UNL1        0.0632
      7 C           4.6260   -1.1776    0.0000 C.3     1  UNL1       -0.0166
      8 C           4.6260    0.8917    0.0000 C.3     1  UNL1       -0.0421
      9 C           5.5321   -0.6637    0.0000 C.3     1  UNL1       -0.0178
     10 C           2.0000   -0.6429    0.0000 C.3     1  UNL1       -0.0455
     11 C           5.5321    0.3779    0.0000 C.3     1  UNL1       -0.0458
     12 C           2.0000    0.3571    0.0000 C.3     1  UNL1       -0.0259
     13 C           3.7320    1.3571    0.0000 C.3     1  UNL1       -0.0546
     14 C           2.8660   -2.1429    0.0000 C.3     1  UNL1       -0.0598
     15 C           6.3961   -1.1671    0.0000 C.2     1  UNL1       -0.0765
     16 C           7.2641   -0.6704    0.0000 C.3     1  UNL1       -0.0438
     17 C           6.3923   -2.1671    0.0000 C.2     1  UNL1       -0.0994
     18 H           2.3291   -1.4529    0.0000 H       1  UNL1        0.0326
     19 H           2.3291    1.1671    0.0000 H       1  UNL1        0.0599
     20 H           4.2214   -1.6474    0.0000 H       1  UNL1        0.0299
     21 H           5.0196   -1.6566    0.0000 H       1  UNL1        0.0299
     22 H           5.0196    1.3708    0.0000 H       1  UNL1        0.0272
     23 H           4.2214    1.3615    0.0000 H       1  UNL1        0.0272
     24 H           5.5285   -1.2837    0.0000 H       1  UNL1        0.0346
     25 H           1.3894   -0.5353    0.0000 H       1  UNL1        0.0270
     26 H           1.7880   -1.2255    0.0000 H       1  UNL1        0.0270
     27 H           6.1429    0.2718    0.0000 H       1  UNL1        0.0271
     28 H           5.7411    0.9616    0.0000 H       1  UNL1        0.0271
     29 H           1.7880    0.9397    0.0000 H       1  UNL1        0.0290
     30 H           1.3894    0.2494    0.0000 H       1  UNL1        0.0290
     31 H           4.3520    1.3571    0.0000 H       1  UNL1        0.0237
     32 H           3.7320    1.9771    0.0000 H       1  UNL1        0.0237
     33 H           3.1120    1.3571    0.0000 H       1  UNL1        0.0237
     34 H           2.2460   -2.1429    0.0000 H       1  UNL1        0.0233
     35 H           2.8660   -2.7629    0.0000 H       1  UNL1        0.0233
     36 H           3.4860   -2.1429    0.0000 H       1  UNL1        0.0233
     37 H           4.2690   -1.9529    0.0000 H       1  UNL1        0.2102
     38 H           2.3291    2.1671    0.0000 H       1  UNL1        0.2098
     39 H           7.5720   -1.2086    0.0000 H       1  UNL1        0.0274
     40 H           7.8022   -0.3625    0.0000 H       1  UNL1        0.0274
     41 H           6.9562   -0.1323    0.0000 H       1  UNL1        0.0274
     42 H           5.8542   -2.4750    0.0000 H       1  UNL1        0.0534
     43 H           6.9280   -2.4791    0.0000 H       1  UNL1        0.0534
@<TRIPOS>BOND
     1     4     1    1
     2     1    37    1
     3     6     2    1
     4     2    38    1
     5     3     4    1
     6     3     6    1
     7     3     8    1
     8     3    13    1
     9     4     5    1
    10     4     7    1
    11     5    10    1
    12     5    14    1
    13     5    18    1
    14     6    12    1
    15     6    19    1
    16     7     9    1
    17     7    20    1
    18     7    21    1
    19     8    11    1
    20     8    22    1
    21     8    23    1
    22     9    11    1
    23     9    15    1
    24     9    24    1
    25    10    12    1
    26    10    25    1
    27    10    26    1
    28    11    27    1
    29    11    28    1
    30    12    29    1
    31    12    30    1
    32    13    31    1
    33    13    32    1
    34    13    33    1
    35    14    34    1
    36    14    35    1
    37    14    36    1
    38    15    16    1
    39    15    17    2
    40    16    39    1
    41    16    40    1
    42    16    41    1
    43    17    42    1
    44    17    43    1
