@<TRIPOS>MOLECULE
IMPHY001835
 42 45 0 0 0
SMALL
GASTEIGER

@<TRIPOS>ATOM
      1 O           7.7998   -2.7846    0.0000 O.3     1  UNL1       -0.4912
      2 O           3.4534   -1.3192    0.0000 O.2     1  UNL1       -0.2670
      3 O           9.5319   -1.7846    0.0000 O.3     1  UNL1       -0.4914
      4 N           6.0678    0.2154    0.0000 N.ar    1  UNL1       -0.1583
      5 N           2.5357    0.1946    0.0000 N.ar    1  UNL1       -0.3284
      6 C           6.0678    1.2154    0.0000 C.ar    1  UNL1        0.2213
      7 C           5.2018    1.7154    0.0000 C.ar    1  UNL1        0.0548
      8 C           4.3358    1.2154    0.0000 C.ar    1  UNL1        0.0078
      9 C           4.3358    0.2154    0.0000 C.ar    1  UNL1        0.1109
     10 C           5.2018   -0.2846    0.0000 C.ar    1  UNL1        0.1908
     11 C           6.9338   -0.2846    0.0000 C.ar    1  UNL1        0.2173
     12 C           6.9778    1.7222    0.0000 C.ar    1  UNL1        0.0108
     13 C           5.1857    2.7569    0.0000 C.ar    1  UNL1       -0.0477
     14 C           3.4418    1.7500    0.0000 C.ar    1  UNL1       -0.0368
     15 C           3.4418   -0.3193    0.0000 C.ar    1  UNL1        0.2622
     16 C           6.9338   -1.2846    0.0000 C.ar    1  UNL1        0.0554
     17 C           7.7998    0.2154    0.0000 C.ar    1  UNL1        0.0139
     18 C           6.9858    2.7638    0.0000 C.ar    1  UNL1       -0.0555
     19 C           6.0838    3.2846    0.0000 C.ar    1  UNL1       -0.0608
     20 C           2.5357    1.2362    0.0000 C.ar    1  UNL1        0.0056
     21 C           7.7998   -1.7846    0.0000 C.ar    1  UNL1        0.1677
     22 C           8.6659   -0.2846    0.0000 C.ar    1  UNL1       -0.0101
     23 C           8.6659   -1.2846    0.0000 C.ar    1  UNL1        0.1619
     24 C           8.6659   -3.2846    0.0000 C.3     1  UNL1        0.0790
     25 C          10.3979   -1.2846    0.0000 C.3     1  UNL1        0.0790
     26 H           5.2018   -0.9046    0.0000 H       1  UNL1        0.1390
     27 H           7.5111    1.4060    0.0000 H       1  UNL1        0.0684
     28 H           4.6452    3.0606    0.0000 H       1  UNL1        0.0626
     29 H           3.4490    2.3700    0.0000 H       1  UNL1        0.0638
     30 H           6.3969   -1.5946    0.0000 H       1  UNL1        0.0722
     31 H           7.7998    0.8354    0.0000 H       1  UNL1        0.0685
     32 H           7.5240    3.0717    0.0000 H       1  UNL1        0.0620
     33 H           6.0814    3.9046    0.0000 H       1  UNL1        0.0618
     34 H           2.0000    1.5482    0.0000 H       1  UNL1        0.0808
     35 H           2.0000   -0.1175    0.0000 H       1  UNL1        0.1683
     36 H           9.2028    0.0254    0.0000 H       1  UNL1        0.0657
     37 H           8.3559   -3.8216    0.0000 H       1  UNL1        0.0660
     38 H           9.2028   -3.5946    0.0000 H       1  UNL1        0.0660
     39 H           8.9759   -2.7477    0.0000 H       1  UNL1        0.0660
     40 H          10.7079   -1.8216    0.0000 H       1  UNL1        0.0660
     41 H          10.9349   -0.9746    0.0000 H       1  UNL1        0.0660
     42 H          10.0879   -0.7477    0.0000 H       1  UNL1        0.0660
@<TRIPOS>UNITY_ATOM_ATTR
4 1
charge 1
@<TRIPOS>BOND
     1     1    21    1
     2     1    24    1
     3     2    15    2
     4     3    23    1
     5     3    25    1
     6     4     6   ar
     7     4    10   ar
     8     4    11    1
     9     5    15   ar
    10     5    20   ar
    11     5    35    1
    12     6     7   ar
    13     6    12   ar
    14     7     8   ar
    15     7    13   ar
    16     8     9   ar
    17     8    14   ar
    18     9    10   ar
    19     9    15   ar
    20    10    26    1
    21    11    16   ar
    22    11    17   ar
    23    12    18   ar
    24    12    27    1
    25    13    19   ar
    26    13    28    1
    27    14    20   ar
    28    14    29    1
    29    16    21   ar
    30    16    30    1
    31    17    22   ar
    32    17    31    1
    33    18    19   ar
    34    18    32    1
    35    19    33    1
    36    20    34    1
    37    21    23   ar
    38    22    23   ar
    39    22    36    1
    40    24    37    1
    41    24    38    1
    42    24    39    1
    43    25    40    1
    44    25    41    1
    45    25    42    1
