@<TRIPOS>MOLECULE
IMPHY010103
 97 97 0 0 0
SMALL
GASTEIGER

@<TRIPOS>ATOM
      1 O           3.3660    2.6340    0.0000 O.3     1  UNL1       -0.3653
      2 C           2.8660    3.5000    0.0000 C.3     1  UNL1        0.0904
      3 C           3.8660    3.5000    0.0000 C.3     1  UNL1        0.0881
      4 C           4.7320    4.0000    0.0000 C.3     1  UNL1       -0.0202
      5 C           2.8660    4.5000    0.0000 C.3     1  UNL1       -0.0336
      6 C           2.0000    3.0000    0.0000 C.3     1  UNL1       -0.0336
      7 C           5.5981    3.5000    0.0000 C.3     1  UNL1       -0.0293
      8 C           6.4641    4.0000    0.0000 C.2     1  UNL1       -0.0725
      9 C           6.4641    5.0000    0.0000 C.3     1  UNL1       -0.0435
     10 C           7.3301    3.5000    0.0000 C.2     1  UNL1       -0.0628
     11 C           7.3301    2.5000    0.0000 C.2     1  UNL1       -0.0616
     12 C           8.1962    2.0000    0.0000 C.2     1  UNL1       -0.0588
     13 C           8.1962    1.0000    0.0000 C.2     1  UNL1       -0.0504
     14 C           7.3301    0.5000    0.0000 C.3     1  UNL1       -0.0397
     15 C           9.0622    0.5000    0.0000 C.2     1  UNL1       -0.0588
     16 C           9.9282    1.0000    0.0000 C.2     1  UNL1       -0.0613
     17 C          10.7942    0.5000    0.0000 C.2     1  UNL1       -0.0588
     18 C          21.1865   -3.5000    0.0000 C.3     1  UNL1       -0.0283
     19 C          11.6603    1.0000    0.0000 C.2     1  UNL1       -0.0504
     20 C          22.0526   -4.0000    0.0000 C.3     1  UNL1       -0.0308
     21 C          20.3205   -4.0000    0.0000 C.2     1  UNL1       -0.0723
     22 C          22.9186   -3.5000    0.0000 C.2     1  UNL1       -0.0850
     23 C          23.7846   -4.0000    0.0000 C.2     1  UNL1       -0.0796
     24 C          20.3205   -5.0000    0.0000 C.3     1  UNL1       -0.0435
     25 C          11.6603    2.0000    0.0000 C.3     1  UNL1       -0.0397
     26 C          19.4545   -3.5000    0.0000 C.2     1  UNL1       -0.0628
     27 C          12.5263    0.5000    0.0000 C.2     1  UNL1       -0.0588
     28 C          24.6506   -3.5000    0.0000 C.3     1  UNL1       -0.0440
     29 C          23.7846   -5.0000    0.0000 C.3     1  UNL1       -0.0440
     30 C          19.4545   -2.5000    0.0000 C.2     1  UNL1       -0.0616
     31 C          18.5885   -2.0000    0.0000 C.2     1  UNL1       -0.0588
     32 C          13.3923    1.0000    0.0000 C.2     1  UNL1       -0.0615
     33 C          18.5885   -1.0000    0.0000 C.2     1  UNL1       -0.0504
     34 C          14.2583    0.5000    0.0000 C.2     1  UNL1       -0.0615
     35 C          17.7224   -0.5000    0.0000 C.2     1  UNL1       -0.0588
     36 C          19.4545   -0.5000    0.0000 C.3     1  UNL1       -0.0397
     37 C          15.9904    0.5000    0.0000 C.2     1  UNL1       -0.0504
     38 C          15.1244    1.0000    0.0000 C.2     1  UNL1       -0.0588
     39 C          17.7224    0.5000    0.0000 C.2     1  UNL1       -0.0613
     40 C          16.8564    1.0000    0.0000 C.2     1  UNL1       -0.0588
     41 C          15.9904   -0.5000    0.0000 C.3     1  UNL1       -0.0397
     42 H           4.3044    3.0616    0.0000 H       1  UNL1        0.0625
     43 H           5.1306    4.4750    0.0000 H       1  UNL1        0.0294
     44 H           4.3335    4.4750    0.0000 H       1  UNL1        0.0294
     45 H           3.4860    4.5000    0.0000 H       1  UNL1        0.0258
     46 H           2.8660    5.1200    0.0000 H       1  UNL1        0.0258
     47 H           2.2460    4.5000    0.0000 H       1  UNL1        0.0258
     48 H           1.6900    3.5369    0.0000 H       1  UNL1        0.0258
     49 H           1.4631    2.6900    0.0000 H       1  UNL1        0.0258
     50 H           2.3100    2.4631    0.0000 H       1  UNL1        0.0258
     51 H           5.1996    3.0250    0.0000 H       1  UNL1        0.0311
     52 H           5.9966    3.0250    0.0000 H       1  UNL1        0.0311
     53 H           7.0841    5.0000    0.0000 H       1  UNL1        0.0274
     54 H           6.4641    5.6200    0.0000 H       1  UNL1        0.0274
     55 H           5.8441    5.0000    0.0000 H       1  UNL1        0.0274
     56 H           7.8671    3.8100    0.0000 H       1  UNL1        0.0617
     57 H           6.7932    2.1900    0.0000 H       1  UNL1        0.0618
     58 H           8.7331    2.3100    0.0000 H       1  UNL1        0.0620
     59 H           7.0201    1.0369    0.0000 H       1  UNL1        0.0278
     60 H           6.7932    0.1900    0.0000 H       1  UNL1        0.0278
     61 H           7.6401   -0.0369    0.0000 H       1  UNL1        0.0278
     62 H           9.0622   -0.1200    0.0000 H       1  UNL1        0.0620
     63 H           9.9282    1.6200    0.0000 H       1  UNL1        0.0618
     64 H          10.7942   -0.1200    0.0000 H       1  UNL1        0.0620
     65 H          21.5851   -3.0250    0.0000 H       1  UNL1        0.0313
     66 H          20.7880   -3.0250    0.0000 H       1  UNL1        0.0313
     67 H          21.6540   -4.4750    0.0000 H       1  UNL1        0.0310
     68 H          22.4511   -4.4750    0.0000 H       1  UNL1        0.0310
     69 H          22.9186   -2.8800    0.0000 H       1  UNL1        0.0572
     70 H          19.7005   -5.0000    0.0000 H       1  UNL1        0.0274
     71 H          20.3205   -5.6200    0.0000 H       1  UNL1        0.0274
     72 H          20.9405   -5.0000    0.0000 H       1  UNL1        0.0274
     73 H          18.9175   -3.8100    0.0000 H       1  UNL1        0.0617
     74 H          12.2803    2.0000    0.0000 H       1  UNL1        0.0278
     75 H          11.6603    2.6200    0.0000 H       1  UNL1        0.0278
     76 H          11.0403    2.0000    0.0000 H       1  UNL1        0.0278
     77 H          12.5263   -0.1200    0.0000 H       1  UNL1        0.0620
     78 H          24.9606   -4.0369    0.0000 H       1  UNL1        0.0274
     79 H          25.1876   -3.1900    0.0000 H       1  UNL1        0.0274
     80 H          24.3406   -2.9631    0.0000 H       1  UNL1        0.0274
     81 H          23.1646   -5.0000    0.0000 H       1  UNL1        0.0274
     82 H          23.7846   -5.6200    0.0000 H       1  UNL1        0.0274
     83 H          24.4046   -5.0000    0.0000 H       1  UNL1        0.0274
     84 H          19.9914   -2.1900    0.0000 H       1  UNL1        0.0618
     85 H          18.0515   -2.3100    0.0000 H       1  UNL1        0.0620
     86 H          13.3923    1.6200    0.0000 H       1  UNL1        0.0618
     87 H          17.1855   -0.8100    0.0000 H       1  UNL1        0.0620
     88 H          19.7645   -1.0369    0.0000 H       1  UNL1        0.0278
     89 H          19.9914   -0.1900    0.0000 H       1  UNL1        0.0278
     90 H          19.1445    0.0369    0.0000 H       1  UNL1        0.0278
     91 H          14.2583   -0.1200    0.0000 H       1  UNL1        0.0618
     92 H          18.2594    0.8100    0.0000 H       1  UNL1        0.0618
     93 H          15.1244    1.6200    0.0000 H       1  UNL1        0.0620
     94 H          16.8564    1.6200    0.0000 H       1  UNL1        0.0620
     95 H          15.3704   -0.5000    0.0000 H       1  UNL1        0.0278
     96 H          15.9904   -1.1200    0.0000 H       1  UNL1        0.0278
     97 H          16.6104   -0.5000    0.0000 H       1  UNL1        0.0278
@<TRIPOS>BOND
     1     1     2    1
     2     1     3    1
     3     2     3    1
     4     2     5    1
     5     2     6    1
     6     3     4    1
     7     3    42    1
     8     4     7    1
     9     4    43    1
    10     4    44    1
    11     5    45    1
    12     5    46    1
    13     5    47    1
    14     6    48    1
    15     6    49    1
    16     6    50    1
    17     7     8    1
    18     7    51    1
    19     7    52    1
    20     8     9    1
    21     8    10    2
    22     9    53    1
    23     9    54    1
    24     9    55    1
    25    10    11    1
    26    10    56    1
    27    11    12    2
    28    11    57    1
    29    12    13    1
    30    12    58    1
    31    13    14    1
    32    13    15    2
    33    14    59    1
    34    14    60    1
    35    14    61    1
    36    15    16    1
    37    15    62    1
    38    16    17    2
    39    16    63    1
    40    17    19    1
    41    17    64    1
    42    18    20    1
    43    18    21    1
    44    18    65    1
    45    18    66    1
    46    19    25    1
    47    19    27    2
    48    20    22    1
    49    20    67    1
    50    20    68    1
    51    21    24    1
    52    21    26    2
    53    22    23    2
    54    22    69    1
    55    23    28    1
    56    23    29    1
    57    24    70    1
    58    24    71    1
    59    24    72    1
    60    25    74    1
    61    25    75    1
    62    25    76    1
    63    26    30    1
    64    26    73    1
    65    27    32    1
    66    27    77    1
    67    28    78    1
    68    28    79    1
    69    28    80    1
    70    29    81    1
    71    29    82    1
    72    29    83    1
    73    30    31    2
    74    30    84    1
    75    31    33    1
    76    31    85    1
    77    32    34    2
    78    32    86    1
    79    33    35    2
    80    33    36    1
    81    34    38    1
    82    34    91    1
    83    35    39    1
    84    35    87    1
    85    36    88    1
    86    36    89    1
    87    36    90    1
    88    37    38    2
    89    37    40    1
    90    37    41    1
    91    38    93    1
    92    39    40    2
    93    39    92    1
    94    40    94    1
    95    41    95    1
    96    41    96    1
    97    41    97    1
