@<TRIPOS>MOLECULE
IMPHY013711
 36 39 0 0 0
SMALL
GASTEIGER

@<TRIPOS>ATOM
      1 CL          4.6660   -3.0363    0.0000 Cl      1  UNL1       -0.0810
      2 O           3.7782    1.4952    0.0000 O.3     1  UNL1       -0.4908
      3 O           5.5442    2.5330    0.0000 O.3     1  UNL1       -0.4914
      4 O           8.1630   -0.0856    0.0000 O.2     1  UNL1       -0.2817
      5 O           8.1118   -2.0660    0.0000 O.2     1  UNL1       -0.2663
      6 N           6.3903   -2.0332    0.0000 N.am    1  UNL1       -0.2771
      7 C           5.5321   -0.5363    0.0000 C.ar    1  UNL1        0.0201
      8 C           4.6660   -0.0363    0.0000 C.ar    1  UNL1        0.0377
      9 C           5.5321   -1.5363    0.0000 C.ar    1  UNL1        0.0614
     10 C           3.8000   -0.5363    0.0000 C.ar    1  UNL1       -0.0050
     11 C           6.4421   -0.0294    0.0000 C.ar    1  UNL1        0.0401
     12 C           3.8000   -1.5363    0.0000 C.ar    1  UNL1        0.0030
     13 C           4.6500    1.0052    0.0000 C.ar    1  UNL1        0.1698
     14 C           4.6660   -2.0363    0.0000 C.ar    1  UNL1        0.0704
     15 C           6.4501    1.0122    0.0000 C.ar    1  UNL1       -0.0047
     16 C           5.5480    1.5330    0.0000 C.ar    1  UNL1        0.1628
     17 C           7.2814   -0.5577    0.0000 C.2     1  UNL1        0.2483
     18 C           2.9061   -0.0016    0.0000 C.ar    1  UNL1       -0.0533
     19 C           7.2558   -1.5490    0.0000 C.2     1  UNL1        0.2887
     20 C           2.9061   -2.0710    0.0000 C.ar    1  UNL1       -0.0526
     21 C           2.0000   -0.5155    0.0000 C.ar    1  UNL1       -0.0611
     22 C           2.0000   -1.5571    0.0000 C.ar    1  UNL1       -0.0611
     23 C           3.7667    2.4951    0.0000 C.3     1  UNL1        0.0790
     24 C           6.4082    3.0363    0.0000 C.3     1  UNL1        0.0790
     25 H           6.9882    1.3201    0.0000 H       1  UNL1        0.0663
     26 H           6.3857   -2.6532    0.0000 H       1  UNL1        0.1553
     27 H           2.9132    0.6183    0.0000 H       1  UNL1        0.0624
     28 H           2.9132   -2.6909    0.0000 H       1  UNL1        0.0624
     29 H           1.4643   -0.2034    0.0000 H       1  UNL1        0.0618
     30 H           1.4643   -1.8692    0.0000 H       1  UNL1        0.0618
     31 H           4.3866    2.5023    0.0000 H       1  UNL1        0.0660
     32 H           3.7595    3.1151    0.0000 H       1  UNL1        0.0660
     33 H           3.1467    2.4879    0.0000 H       1  UNL1        0.0660
     34 H           6.7203    2.5006    0.0000 H       1  UNL1        0.0660
     35 H           6.9440    3.3484    0.0000 H       1  UNL1        0.0660
     36 H           6.0962    3.5720    0.0000 H       1  UNL1        0.0660
@<TRIPOS>BOND
     1     1    14    1
     2     2    13    1
     3     2    23    1
     4     3    16    1
     5     3    24    1
     6     4    17    2
     7     5    19    2
     8     6     9    1
     9     6    19   am
    10     6    26    1
    11     7     8   ar
    12     7     9   ar
    13     7    11   ar
    14     8    10   ar
    15     8    13   ar
    16     9    14   ar
    17    10    12   ar
    18    10    18   ar
    19    11    15   ar
    20    11    17    1
    21    12    14   ar
    22    12    20   ar
    23    13    16   ar
    24    15    16   ar
    25    15    25    1
    26    17    19    1
    27    18    21   ar
    28    18    27    1
    29    20    22   ar
    30    20    28    1
    31    21    22   ar
    32    21    29    1
    33    22    30    1
    34    23    31    1
    35    23    32    1
    36    23    33    1
    37    24    34    1
    38    24    35    1
    39    24    36    1
