@<TRIPOS>MOLECULE
IMPHY017207
 28 27 0 0 0
SMALL
GASTEIGER

@<TRIPOS>ATOM
      1 O           7.1962    0.5670    0.0000 O.2     1  UNL1       -0.3010
      2 C           2.8660    0.0670    0.0000 C.3     1  UNL1       -0.0375
      3 C           3.7320    0.5670    0.0000 C.3     1  UNL1       -0.0451
      4 C           4.5981    0.0670    0.0000 C.3     1  UNL1       -0.0370
      5 C           2.0000   -0.4330    0.0000 C.3     1  UNL1       -0.0601
      6 C           2.3660    0.9330    0.0000 C.3     1  UNL1       -0.0601
      7 C           3.3660   -0.7990    0.0000 C.3     1  UNL1       -0.0601
      8 C           5.4641    0.5670    0.0000 C.3     1  UNL1        0.0054
      9 C           4.5981   -0.9330    0.0000 C.3     1  UNL1       -0.0620
     10 C           6.3301    0.0670    0.0000 C.2     1  UNL1        0.1206
     11 H           4.1306    1.0419    0.0000 H       1  UNL1        0.0273
     12 H           3.3335    1.0419    0.0000 H       1  UNL1        0.0273
     13 H           5.1350   -0.2430    0.0000 H       1  UNL1        0.0302
     14 H           1.6900    0.1039    0.0000 H       1  UNL1        0.0235
     15 H           1.4631   -0.7430    0.0000 H       1  UNL1        0.0235
     16 H           2.3100   -0.9699    0.0000 H       1  UNL1        0.0235
     17 H           2.9030    1.2430    0.0000 H       1  UNL1        0.0235
     18 H           2.0560    1.4700    0.0000 H       1  UNL1        0.0235
     19 H           1.8291    0.6230    0.0000 H       1  UNL1        0.0235
     20 H           2.8291   -1.1090    0.0000 H       1  UNL1        0.0235
     21 H           3.6760   -1.3360    0.0000 H       1  UNL1        0.0235
     22 H           3.9030   -0.4890    0.0000 H       1  UNL1        0.0235
     23 H           5.8626    1.0419    0.0000 H       1  UNL1        0.0341
     24 H           5.0656    1.0419    0.0000 H       1  UNL1        0.0341
     25 H           3.9781   -0.9330    0.0000 H       1  UNL1        0.0233
     26 H           4.5981   -1.5530    0.0000 H       1  UNL1        0.0233
     27 H           5.2181   -0.9330    0.0000 H       1  UNL1        0.0233
     28 H           6.3301   -0.5530    0.0000 H       1  UNL1        0.1026
@<TRIPOS>BOND
     1     1    10    2
     2     2     3    1
     3     2     5    1
     4     2     6    1
     5     2     7    1
     6     3     4    1
     7     3    11    1
     8     3    12    1
     9     4     8    1
    10     4     9    1
    11     4    13    1
    12     5    14    1
    13     5    15    1
    14     5    16    1
    15     6    17    1
    16     6    18    1
    17     6    19    1
    18     7    20    1
    19     7    21    1
    20     7    22    1
    21     8    10    1
    22     8    23    1
    23     8    24    1
    24     9    25    1
    25     9    26    1
    26     9    27    1
    27    10    28    1
