@<TRIPOS>MOLECULE
IMPHY014548
 61 64 0 0 0
SMALL
GASTEIGER

@<TRIPOS>ATOM
      1 O           5.3747    0.2590    0.0000 O.3     1  UNL1       -0.4479
      2 O           7.4217    1.2952    0.0000 O.3     1  UNL1       -0.3837
      3 O           5.6127    2.6095    0.0000 O.3     1  UNL1       -0.3843
      4 O           4.6856   -0.2436    0.0000 O.3     1  UNL1       -0.3771
      5 O           5.0808   -1.4962    0.0000 O.3     1  UNL1       -0.4570
      6 O           4.1827    1.6796    0.0000 O.2     1  UNL1       -0.2508
      7 O           6.0826   -2.9092    0.0000 O.2     1  UNL1       -0.2512
      8 C           5.8037    0.1196    0.0000 C.3     1  UNL1        0.2137
      9 C           6.3037    1.6585    0.0000 C.3     1  UNL1        0.0429
     10 C           6.6127    0.7074    0.0000 C.3     1  UNL1        0.1209
     11 C           5.3037    1.6585    0.0000 C.3     1  UNL1        0.1146
     12 C           4.9946    0.7074    0.0000 C.3     1  UNL1        0.1621
     13 C           5.8966   -0.9178    0.0000 C.3     1  UNL1        0.1510
     14 C           7.5707    0.2985    0.0000 C.3     1  UNL1       -0.0190
     15 C           4.4979    2.2407    0.0000 C.3     1  UNL1        0.0016
     16 C           5.8747    1.7979    0.0000 C.3     1  UNL1        0.0558
     17 C           4.0006    0.7100    0.0000 C.2     1  UNL1       -0.0351
     18 C           6.8448   -1.3488    0.0000 C.3     1  UNL1       -0.0025
     19 C           6.6127    2.6095    0.0000 C.3     1  UNL1       -0.0535
     20 C           3.6942    1.6557    0.0000 C.2     1  UNL1       -0.0622
     21 C           7.6875   -0.7366    0.0000 C.3     1  UNL1       -0.0442
     22 C           5.0657    1.2101    0.0000 C.2     1  UNL1        0.3086
     23 C           2.7431    1.9647    0.0000 C.3     1  UNL1       -0.0251
     24 C           3.4114   -0.0980    0.0000 C.3     1  UNL1       -0.0406
     25 C           6.9455   -2.3438    0.0000 C.3     1  UNL1       -0.0589
     26 C           2.5352    2.9429    0.0000 C.3     1  UNL1       -0.0589
     27 C           2.0000    1.2956    0.0000 C.3     1  UNL1       -0.0589
     28 C           5.1738   -2.4919    0.0000 C.2     1  UNL1        0.3043
     29 C           4.3581   -3.0703    0.0000 C.3     1  UNL1        0.0332
     30 H           5.3336   -0.6580    0.0000 H       1  UNL1        0.0779
     31 H           8.1896    0.2616    0.0000 H       1  UNL1        0.0294
     32 H           7.7129    0.9019    0.0000 H       1  UNL1        0.0294
     33 H           4.9118    2.7023    0.0000 H       1  UNL1        0.0339
     34 H           4.0824    2.7008    0.0000 H       1  UNL1        0.0339
     35 H           6.1847    2.3348    0.0000 H       1  UNL1        0.0385
     36 H           5.4139    2.2127    0.0000 H       1  UNL1        0.0385
     37 H           6.3412   -1.7104    0.0000 H       1  UNL1        0.0335
     38 H           7.2023    2.4180    0.0000 H       1  UNL1        0.0237
     39 H           6.8043    3.1992    0.0000 H       1  UNL1        0.0237
     40 H           6.0230    2.8011    0.0000 H       1  UNL1        0.0237
     41 H           7.9608   -1.2931    0.0000 H       1  UNL1        0.0270
     42 H           8.2826   -0.5626    0.0000 H       1  UNL1        0.0270
     43 H           7.9881    1.0430    0.0000 H       1  UNL1        0.2104
     44 H           5.1978    3.0703    0.0000 H       1  UNL1        0.2103
     45 H           4.0792   -0.3725    0.0000 H       1  UNL1        0.2109
     46 H           2.8721    1.3583    0.0000 H       1  UNL1        0.0340
     47 H           2.9104    0.2673    0.0000 H       1  UNL1        0.0275
     48 H           3.0461   -0.5990    0.0000 H       1  UNL1        0.0275
     49 H           3.9124   -0.4633    0.0000 H       1  UNL1        0.0275
     50 H           6.3287   -2.4062    0.0000 H       1  UNL1        0.0234
     51 H           7.0080   -2.9606    0.0000 H       1  UNL1        0.0234
     52 H           7.5624   -2.2813    0.0000 H       1  UNL1        0.0234
     53 H           3.1417    3.0718    0.0000 H       1  UNL1        0.0235
     54 H           2.4063    3.5493    0.0000 H       1  UNL1        0.0235
     55 H           1.9288    2.8140    0.0000 H       1  UNL1        0.0235
     56 H           1.5851    1.7563    0.0000 H       1  UNL1        0.0235
     57 H           1.5392    0.8807    0.0000 H       1  UNL1        0.0235
     58 H           2.4149    0.8348    0.0000 H       1  UNL1        0.0235
     59 H           3.9995   -2.5645    0.0000 H       1  UNL1        0.0342
     60 H           3.8523   -3.4289    0.0000 H       1  UNL1        0.0342
     61 H           4.7167   -3.5761    0.0000 H       1  UNL1        0.0342
@<TRIPOS>BOND
     1     8     1    1
     2     1    22    1
     3    10     2    1
     4     2    43    1
     5    11     3    1
     6     3    44    1
     7    12     4    1
     8     4    45    1
     9    13     5    1
    10     5    28    1
    11     6    22    2
    12     7    28    2
    13     8    10    1
    14     8    12    1
    15     8    13    1
    16     9    10    1
    17     9    11    1
    18     9    16    1
    19     9    19    1
    20    10    14    1
    21    11    12    1
    22    11    15    1
    23    12    17    1
    24    13    18    1
    25    13    30    1
    26    14    21    1
    27    14    31    1
    28    14    32    1
    29    15    20    1
    30    15    33    1
    31    15    34    1
    32    16    22    1
    33    16    35    1
    34    16    36    1
    35    17    20    2
    36    17    24    1
    37    18    21    1
    38    18    25    1
    39    18    37    1
    40    19    38    1
    41    19    39    1
    42    19    40    1
    43    20    23    1
    44    21    41    1
    45    21    42    1
    46    23    26    1
    47    23    27    1
    48    23    46    1
    49    24    47    1
    50    24    48    1
    51    24    49    1
    52    25    50    1
    53    25    51    1
    54    25    52    1
    55    26    53    1
    56    26    54    1
    57    26    55    1
    58    27    56    1
    59    27    57    1
    60    27    58    1
    61    28    29    1
    62    29    59    1
    63    29    60    1
    64    29    61    1
