@<TRIPOS>MOLECULE
IMPHY011029
 31 32 0 0 0
SMALL
GASTEIGER

@<TRIPOS>ATOM
      1 O           3.7320   -0.5000    0.0000 O.3     1  UNL1       -0.4608
      2 O           2.0000   -0.5000    0.0000 O.2     1  UNL1       -0.2450
      3 C           4.5981    1.0000    0.0000 C.3     1  UNL1        0.0068
      4 C           4.5981    2.0000    0.0000 C.ar    1  UNL1       -0.0442
      5 C           3.7320    0.5000    0.0000 C.3     1  UNL1        0.0967
      6 C           5.4641    2.5000    0.0000 C.ar    1  UNL1       -0.0585
      7 C           3.7320    2.5000    0.0000 C.ar    1  UNL1       -0.0585
      8 C           2.8660   -2.0000    0.0000 C.ar    1  UNL1        0.0590
      9 C           5.4641    3.5000    0.0000 C.ar    1  UNL1       -0.0615
     10 C           3.7320    3.5000    0.0000 C.ar    1  UNL1       -0.0615
     11 C           2.8660   -1.0000    0.0000 C.2     1  UNL1        0.3392
     12 C           4.5981    4.0000    0.0000 C.ar    1  UNL1       -0.0617
     13 C           2.0000   -2.5000    0.0000 C.ar    1  UNL1       -0.0478
     14 C           3.7320   -2.5000    0.0000 C.ar    1  UNL1       -0.0478
     15 C           2.0000   -3.5000    0.0000 C.ar    1  UNL1       -0.0610
     16 C           3.7320   -3.5000    0.0000 C.ar    1  UNL1       -0.0610
     17 C           2.8660   -4.0000    0.0000 C.ar    1  UNL1       -0.0617
     18 H           4.8101    0.4174    0.0000 H       1  UNL1        0.0346
     19 H           5.2087    1.1077    0.0000 H       1  UNL1        0.0346
     20 H           3.5200    1.0826    0.0000 H       1  UNL1        0.0701
     21 H           3.1215    0.3923    0.0000 H       1  UNL1        0.0701
     22 H           6.0010    2.1900    0.0000 H       1  UNL1        0.0620
     23 H           3.1951    2.1900    0.0000 H       1  UNL1        0.0620
     24 H           6.0010    3.8100    0.0000 H       1  UNL1        0.0618
     25 H           3.1951    3.8100    0.0000 H       1  UNL1        0.0618
     26 H           4.5981    4.6200    0.0000 H       1  UNL1        0.0618
     27 H           1.4631   -2.1900    0.0000 H       1  UNL1        0.0626
     28 H           4.2690   -2.1900    0.0000 H       1  UNL1        0.0626
     29 H           1.4631   -3.8100    0.0000 H       1  UNL1        0.0618
     30 H           4.2690   -3.8100    0.0000 H       1  UNL1        0.0618
     31 H           2.8660   -4.6200    0.0000 H       1  UNL1        0.0618
@<TRIPOS>BOND
     1     1     5    1
     2     1    11    1
     3     2    11    2
     4     3     4    1
     5     3     5    1
     6     3    18    1
     7     3    19    1
     8     4     6   ar
     9     4     7   ar
    10     5    20    1
    11     5    21    1
    12     6     9   ar
    13     6    22    1
    14     7    10   ar
    15     7    23    1
    16     8    11    1
    17     8    13   ar
    18     8    14   ar
    19     9    12   ar
    20     9    24    1
    21    10    12   ar
    22    10    25    1
    23    12    26    1
    24    13    15   ar
    25    13    27    1
    26    14    16   ar
    27    14    28    1
    28    15    17   ar
    29    15    29    1
    30    16    17   ar
    31    16    30    1
    32    17    31    1
