@<TRIPOS>MOLECULE
IMPHY007381
 57 59 0 0 0
SMALL
GASTEIGER

@<TRIPOS>ATOM
      1 CL          6.0682   -2.6550    0.0000 Cl      1  UNL1        0.0000
      2 O           8.6663    1.8450    0.0000 O.3     2  UNL2       -0.3369
      3 O           7.8003    0.3450    0.0000 O.3     2  UNL2       -0.4515
      4 O           6.0682    3.3450    0.0000 O.3     2  UNL2       -0.3864
      5 O           6.0682    1.3450    0.0000 O.3     2  UNL2       -0.3829
      6 O           7.8003    4.3450    0.0000 O.3     2  UNL2       -0.3869
      7 O           6.0682   -1.6550    0.0000 O.2     2  UNL2       -0.1997
      8 O           4.3198    1.3796    0.0000 O.3     2  UNL2       -0.5057
      9 O          10.3984   -1.1550    0.0000 O.3     2  UNL2       -0.4913
     10 O           8.6663   -4.1550    0.0000 O.3     2  UNL2       -0.4913
     11 O           2.5381   -1.6792    0.0000 O.3     2  UNL2       -0.5063
     12 O          10.3984   -3.1550    0.0000 O.3     2  UNL2       -0.5009
     13 C           6.9343    2.8450    0.0000 C.3     2  UNL2        0.1148
     14 C           6.9343    1.8450    0.0000 C.3     2  UNL2        0.1454
     15 C           7.8003    3.3450    0.0000 C.3     2  UNL2        0.1070
     16 C           7.8003    1.3450    0.0000 C.3     2  UNL2        0.2309
     17 C           8.6663    2.8450    0.0000 C.3     2  UNL2        0.0802
     18 C           6.9343   -0.1550    0.0000 C.ar    2  UNL2        0.2288
     19 C           6.9343   -1.1550    0.0000 C.ar    2  UNL2        0.4047
     20 C           6.0682    0.3450    0.0000 C.ar    2  UNL2        0.0093
     21 C           5.2022   -0.1550    0.0000 C.ar    2  UNL2        0.1241
     22 C           7.8003   -1.6550    0.0000 C.ar    2  UNL2        0.0899
     23 C           5.2022   -1.1550    0.0000 C.ar    2  UNL2        0.3708
     24 C           4.3083    0.3797    0.0000 C.ar    2  UNL2        0.1366
     25 C           7.8003   -2.6550    0.0000 C.ar    2  UNL2        0.0002
     26 C           8.6663   -1.1550    0.0000 C.ar    2  UNL2        0.0002
     27 C           4.3083   -1.6897    0.0000 C.ar    2  UNL2        0.0847
     28 C           3.4022   -0.1342    0.0000 C.ar    2  UNL2        0.0225
     29 C           3.4022   -1.1758    0.0000 C.ar    2  UNL2        0.1293
     30 C           9.5323   -1.6550    0.0000 C.ar    2  UNL2        0.1658
     31 C           8.6663   -3.1550    0.0000 C.ar    2  UNL2        0.1658
     32 C           9.5323   -2.6550    0.0000 C.ar    2  UNL2        0.2011
     33 C          11.2644   -1.6550    0.0000 C.3     2  UNL2        0.0790
     34 C           7.8003   -4.6550    0.0000 C.3     2  UNL2        0.0790
     35 H           6.9343    3.4650    0.0000 H       2  UNL2        0.0648
     36 H           6.9343    1.2250    0.0000 H       2  UNL2        0.0683
     37 H           8.3372    3.6550    0.0000 H       2  UNL2        0.0643
     38 H           8.3372    1.0350    0.0000 H       2  UNL2        0.1084
     39 H           9.2769    2.7373    0.0000 H       2  UNL2        0.0588
     40 H           8.8784    3.4276    0.0000 H       2  UNL2        0.0588
     41 H           6.0682    3.9650    0.0000 H       2  UNL2        0.2100
     42 H           5.5313    1.6550    0.0000 H       2  UNL2        0.2102
     43 H           8.3372    4.6550    0.0000 H       2  UNL2        0.2100
     44 H           6.0682    0.9650    0.0000 H       2  UNL2        0.0667
     45 H           7.2634   -2.9650    0.0000 H       2  UNL2        0.0664
     46 H           8.6663   -0.5350    0.0000 H       2  UNL2        0.0664
     47 H           4.3154   -2.3096    0.0000 H       2  UNL2        0.0749
     48 H           2.8665    0.1779    0.0000 H       2  UNL2        0.0691
     49 H           3.7865    1.6958    0.0000 H       2  UNL2        0.2922
     50 H           2.0000   -1.3712    0.0000 H       2  UNL2        0.2921
     51 H          10.3984   -3.7750    0.0000 H       2  UNL2        0.2924
     52 H          10.9544   -2.1919    0.0000 H       2  UNL2        0.0660
     53 H          11.8013   -1.9650    0.0000 H       2  UNL2        0.0660
     54 H          11.5744   -1.1181    0.0000 H       2  UNL2        0.0660
     55 H           7.4903   -4.1181    0.0000 H       2  UNL2        0.0660
     56 H           7.2634   -4.9650    0.0000 H       2  UNL2        0.0660
     57 H           8.1103   -5.1919    0.0000 H       2  UNL2        0.0660
@<TRIPOS>UNITY_ATOM_ATTR
1 1
charge -1
7 1
charge 1
@<TRIPOS>BOND
     1     2    16    1
     2     2    17    1
     3    16     3    1
     4     3    18    1
     5    13     4    1
     6     4    41    1
     7    14     5    1
     8     5    42    1
     9    15     6    1
    10     6    43    1
    11     7    19   ar
    12     7    23   ar
    13     8    24    1
    14     8    49    1
    15     9    30    1
    16     9    33    1
    17    10    31    1
    18    10    34    1
    19    11    29    1
    20    11    50    1
    21    12    32    1
    22    12    51    1
    23    13    14    1
    24    13    15    1
    25    13    35    1
    26    14    16    1
    27    14    36    1
    28    15    17    1
    29    15    37    1
    30    16    38    1
    31    17    39    1
    32    17    40    1
    33    18    19   ar
    34    18    20   ar
    35    19    22    1
    36    20    21   ar
    37    20    44    1
    38    21    23   ar
    39    21    24   ar
    40    22    25   ar
    41    22    26   ar
    42    23    27   ar
    43    24    28   ar
    44    25    31   ar
    45    25    45    1
    46    26    30   ar
    47    26    46    1
    48    27    29   ar
    49    27    47    1
    50    28    29   ar
    51    28    48    1
    52    30    32   ar
    53    31    32   ar
    54    33    52    1
    55    33    53    1
    56    33    54    1
    57    34    55    1
    58    34    56    1
    59    34    57    1
