@<TRIPOS>MOLECULE
IMPHY000705
 79 83 0 0 0
SMALL
GASTEIGER

@<TRIPOS>ATOM
      1 O          11.1246    2.8304    0.0000 O.2     1  UNL1       -0.2965
      2 C           5.7847   -0.3139    0.0000 C.3     1  UNL1       -0.0230
      3 C           6.6507   -0.8139    0.0000 C.3     1  UNL1       -0.0228
      4 C           4.8746   -0.8208    0.0000 C.3     1  UNL1       -0.0292
      5 C           7.5167   -0.3139    0.0000 C.3     1  UNL1       -0.0257
      6 C           7.5167    0.6861    0.0000 C.3     1  UNL1       -0.0219
      7 C           4.8666   -1.8624    0.0000 C.3     1  UNL1       -0.0287
      8 C           5.7847    0.6861    0.0000 C.3     1  UNL1       -0.0463
      9 C           6.6667   -1.8554    0.0000 C.3     1  UNL1       -0.0463
     10 C           6.6507    1.1861    0.0000 C.3     1  UNL1       -0.0463
     11 C           5.7687   -2.3832    0.0000 C.3     1  UNL1       -0.0468
     12 C           3.9478   -0.2567    0.0000 C.3     1  UNL1       -0.0440
     13 C           8.4106    1.2207    0.0000 C.3     1  UNL1       -0.0129
     14 C           3.9312   -2.4121    0.0000 C.3     1  UNL1       -0.0469
     15 C           8.4106   -0.8486    0.0000 C.3     1  UNL1       -0.0306
     16 C           4.9186    0.1861    0.0000 C.3     1  UNL1       -0.0588
     17 C           7.5167   -1.3139    0.0000 C.3     1  UNL1       -0.0588
     18 C           2.9999   -0.7846    0.0000 C.3     1  UNL1       -0.0346
     19 C           2.9916   -1.8696    0.0000 C.3     1  UNL1       -0.0474
     20 C           7.5167    1.6861    0.0000 C.3     1  UNL1       -0.0587
     21 C           4.8589   -2.8624    0.0000 C.3     1  UNL1       -0.0593
     22 C           9.3167    0.7069    0.0000 C.2     1  UNL1       -0.0571
     23 C           8.3856    2.3054    0.0000 C.3     1  UNL1       -0.0393
     24 C           9.3167   -0.3348    0.0000 C.2     1  UNL1       -0.0833
     25 C          10.2605    1.2421    0.0000 C.3     1  UNL1        0.0445
     26 C           2.0000   -0.7731    0.0000 C.3     1  UNL1       -0.0598
     27 C           2.5100    0.0871    0.0000 C.3     1  UNL1       -0.0598
     28 C           9.3167    2.8624    0.0000 C.3     1  UNL1        0.0072
     29 C          10.2605    2.3271    0.0000 C.2     1  UNL1        0.1429
     30 C          11.2605    1.2383    0.0000 C.3     1  UNL1       -0.0493
     31 C          10.7572    0.3742    0.0000 C.3     1  UNL1       -0.0493
     32 H           5.6058   -1.2543    0.0000 H       1  UNL1        0.0312
     33 H           8.2561    0.1054    0.0000 H       1  UNL1        0.0315
     34 H           5.5726    1.2687    0.0000 H       1  UNL1        0.0271
     35 H           5.1741    0.5784    0.0000 H       1  UNL1        0.0271
     36 H           6.8848   -2.4358    0.0000 H       1  UNL1        0.0271
     37 H           7.2759   -1.7399    0.0000 H       1  UNL1        0.0271
     38 H           7.0492    1.6610    0.0000 H       1  UNL1        0.0271
     39 H           6.2522    1.6610    0.0000 H       1  UNL1        0.0271
     40 H           5.3714   -2.8592    0.0000 H       1  UNL1        0.0271
     41 H           6.1697   -2.8561    0.0000 H       1  UNL1        0.0271
     42 H           4.3560    0.2100    0.0000 H       1  UNL1        0.0273
     43 H           3.5579    0.2253    0.0000 H       1  UNL1        0.0273
     44 H           9.1401    1.6570    0.0000 H       1  UNL1        0.0351
     45 H           3.5339   -2.8881    0.0000 H       1  UNL1        0.0271
     46 H           4.3322   -2.8850    0.0000 H       1  UNL1        0.0271
     47 H           8.0060   -1.3184    0.0000 H       1  UNL1        0.0310
     48 H           8.8043   -1.3276    0.0000 H       1  UNL1        0.0310
     49 H           5.2286    0.7230    0.0000 H       1  UNL1        0.0235
     50 H           4.3817    0.4961    0.0000 H       1  UNL1        0.0235
     51 H           4.6086   -0.3509    0.0000 H       1  UNL1        0.0235
     52 H           7.2067   -1.8509    0.0000 H       1  UNL1        0.0235
     53 H           8.0536   -1.6239    0.0000 H       1  UNL1        0.0235
     54 H           7.8267   -0.7770    0.0000 H       1  UNL1        0.0235
     55 H           2.3816   -1.7588    0.0000 H       1  UNL1        0.0271
     56 H           2.7780   -2.4517    0.0000 H       1  UNL1        0.0271
     57 H           8.1367    1.6861    0.0000 H       1  UNL1        0.0235
     58 H           7.5167    2.3061    0.0000 H       1  UNL1        0.0235
     59 H           6.8967    1.6861    0.0000 H       1  UNL1        0.0235
     60 H           4.2389   -2.8576    0.0000 H       1  UNL1        0.0235
     61 H           4.8541   -3.4823    0.0000 H       1  UNL1        0.0235
     62 H           5.4789   -2.8671    0.0000 H       1  UNL1        0.0235
     63 H           8.1631    2.8841    0.0000 H       1  UNL1        0.0275
     64 H           7.7773    2.1852    0.0000 H       1  UNL1        0.0275
     65 H           9.8524   -0.6468    0.0000 H       1  UNL1        0.0572
     66 H           2.0072   -0.1531    0.0000 H       1  UNL1        0.0235
     67 H           1.3800   -0.7659    0.0000 H       1  UNL1        0.0235
     68 H           1.9928   -1.3930    0.0000 H       1  UNL1        0.0235
     69 H           3.0505    0.3909    0.0000 H       1  UNL1        0.0235
     70 H           2.2062    0.6276    0.0000 H       1  UNL1        0.0235
     71 H           1.9695   -0.2167    0.0000 H       1  UNL1        0.0235
     72 H           9.7103    3.3414    0.0000 H       1  UNL1        0.0342
     73 H           8.9121    3.3321    0.0000 H       1  UNL1        0.0342
     74 H          11.2581    0.6183    0.0000 H       1  UNL1        0.0242
     75 H          11.8805    1.2359    0.0000 H       1  UNL1        0.0242
     76 H          11.2629    1.8583    0.0000 H       1  UNL1        0.0242
     77 H          10.2190    0.0662    0.0000 H       1  UNL1        0.0242
     78 H          11.0651   -0.1640    0.0000 H       1  UNL1        0.0242
     79 H          11.2953    0.6821    0.0000 H       1  UNL1        0.0242
@<TRIPOS>BOND
     1     1    29    2
     2     2     3    1
     3     2     4    1
     4     2     8    1
     5     2    16    1
     6     3     5    1
     7     3     9    1
     8     3    17    1
     9     4     7    1
    10     4    12    1
    11     4    32    1
    12     5     6    1
    13     5    15    1
    14     5    33    1
    15     6    10    1
    16     6    13    1
    17     6    20    1
    18     7    11    1
    19     7    14    1
    20     7    21    1
    21     8    10    1
    22     8    34    1
    23     8    35    1
    24     9    11    1
    25     9    36    1
    26     9    37    1
    27    10    38    1
    28    10    39    1
    29    11    40    1
    30    11    41    1
    31    12    18    1
    32    12    42    1
    33    12    43    1
    34    13    22    1
    35    13    23    1
    36    13    44    1
    37    14    19    1
    38    14    45    1
    39    14    46    1
    40    15    24    1
    41    15    47    1
    42    15    48    1
    43    16    49    1
    44    16    50    1
    45    16    51    1
    46    17    52    1
    47    17    53    1
    48    17    54    1
    49    18    19    1
    50    18    26    1
    51    18    27    1
    52    19    55    1
    53    19    56    1
    54    20    57    1
    55    20    58    1
    56    20    59    1
    57    21    60    1
    58    21    61    1
    59    21    62    1
    60    22    24    2
    61    22    25    1
    62    23    28    1
    63    23    63    1
    64    23    64    1
    65    24    65    1
    66    25    29    1
    67    25    30    1
    68    25    31    1
    69    26    66    1
    70    26    67    1
    71    26    68    1
    72    27    69    1
    73    27    70    1
    74    27    71    1
    75    28    29    1
    76    28    72    1
    77    28    73    1
    78    30    74    1
    79    30    75    1
    80    30    76    1
    81    31    77    1
    82    31    78    1
    83    31    79    1
