@<TRIPOS>MOLECULE
IMPHY002926
 16 15 0 0 0
SMALL
GASTEIGER

@<TRIPOS>ATOM
      1 O           2.5369    0.2500    0.0000 O.3     1  UNL1       -0.3895
      2 O           5.1350   -0.2500    0.0000 O.3     1  UNL1       -0.3895
      3 C           3.4030   -0.2500    0.0000 C.3     1  UNL1        0.0780
      4 C           4.2690    0.2500    0.0000 C.3     1  UNL1        0.0780
      5 C           3.4030   -1.2500    0.0000 C.3     1  UNL1       -0.0365
      6 C           4.2690    1.2500    0.0000 C.3     1  UNL1       -0.0365
      7 H           3.4030    0.3700    0.0000 H       1  UNL1        0.0616
      8 H           4.2690   -0.3700    0.0000 H       1  UNL1        0.0616
      9 H           2.7830   -1.2500    0.0000 H       1  UNL1        0.0255
     10 H           3.4030   -1.8700    0.0000 H       1  UNL1        0.0255
     11 H           4.0230   -1.2500    0.0000 H       1  UNL1        0.0255
     12 H           4.8890    1.2500    0.0000 H       1  UNL1        0.0255
     13 H           4.2690    1.8700    0.0000 H       1  UNL1        0.0255
     14 H           3.6490    1.2500    0.0000 H       1  UNL1        0.0255
     15 H           2.0000   -0.0600    0.0000 H       1  UNL1        0.2099
     16 H           5.6720    0.0600    0.0000 H       1  UNL1        0.2099
@<TRIPOS>BOND
     1     1     3    1
     2     1    15    1
     3     2     4    1
     4     2    16    1
     5     3     4    1
     6     3     5    1
     7     3     7    1
     8     4     6    1
     9     4     8    1
    10     5     9    1
    11     5    10    1
    12     5    11    1
    13     6    12    1
    14     6    13    1
    15     6    14    1
