@<TRIPOS>MOLECULE
IMPHY004377
 43 46 0 0 0
SMALL
GASTEIGER

@<TRIPOS>ATOM
      1 O           6.2258    0.0661    0.0000 O.2     1  UNL1       -0.4543
      2 O           4.3797    3.1443    0.0000 O.3     1  UNL1       -0.4872
      3 O           7.7487    3.0380    0.0000 O.3     1  UNL1       -0.4943
      4 O          10.2145   -1.7690    0.0000 O.3     1  UNL1       -0.5066
      5 O           7.2145   -3.5010    0.0000 O.3     1  UNL1       -0.5066
      6 C           5.1506    1.5380    0.0000 C.ar    1  UNL1        0.0410
      7 C           6.0166    1.0380    0.0000 C.ar    1  UNL1        0.1461
      8 C           6.8826    1.5380    0.0000 C.ar    1  UNL1        0.0629
      9 C           4.3797    0.9316    0.0000 C.3     1  UNL1       -0.0021
     10 C           5.1506    2.5380    0.0000 C.ar    1  UNL1        0.1314
     11 C           6.8826    2.5380    0.0000 C.ar    1  UNL1        0.1343
     12 C           7.6196    0.8709    0.0000 C.ar    1  UNL1       -0.0045
     13 C           7.2145   -0.0369    0.0000 C.ar    1  UNL1        0.1366
     14 C           6.0166    3.0380    0.0000 C.ar    1  UNL1        0.0229
     15 C           3.4244    1.1537    0.0000 C.2     1  UNL1       -0.0773
     16 C           3.0000    2.0380    0.0000 C.2     1  UNL1       -0.0394
     17 C           3.4244    2.9222    0.0000 C.3     1  UNL1        0.1105
     18 C           7.7145   -0.9029    0.0000 C.ar    1  UNL1        0.0242
     19 C           2.0000    2.0380    0.0000 C.3     1  UNL1       -0.0406
     20 C           7.2145   -1.7690    0.0000 C.ar    1  UNL1       -0.0093
     21 C           8.7145   -0.9029    0.0000 C.ar    1  UNL1       -0.0093
     22 C           9.2145   -1.7690    0.0000 C.ar    1  UNL1        0.1210
     23 C           7.7145   -2.6350    0.0000 C.ar    1  UNL1        0.1210
     24 C           7.7487    4.0380    0.0000 C.3     1  UNL1        0.0788
     25 C           8.7145   -2.6350    0.0000 C.ar    1  UNL1        0.0213
     26 H           4.1079    0.3743    0.0000 H       1  UNL1        0.0358
     27 H           4.8622    0.5422    0.0000 H       1  UNL1        0.0358
     28 H           8.2263    0.9987    0.0000 H       1  UNL1        0.0663
     29 H           6.0166    3.6580    0.0000 H       1  UNL1        0.0691
     30 H           3.0365    0.6700    0.0000 H       1  UNL1        0.0576
     31 H           3.4224    3.5422    0.0000 H       1  UNL1        0.0744
     32 H           2.8196    3.0588    0.0000 H       1  UNL1        0.0744
     33 H           2.0000    2.6580    0.0000 H       1  UNL1        0.0275
     34 H           1.3800    2.0380    0.0000 H       1  UNL1        0.0275
     35 H           2.0000    1.4180    0.0000 H       1  UNL1        0.0275
     36 H           6.5945   -1.7690    0.0000 H       1  UNL1        0.0661
     37 H           9.0245   -0.3660    0.0000 H       1  UNL1        0.0661
     38 H           9.0245   -3.1719    0.0000 H       1  UNL1        0.0691
     39 H           8.3687    4.0380    0.0000 H       1  UNL1        0.0660
     40 H           7.7487    4.6579    0.0000 H       1  UNL1        0.0660
     41 H           7.1287    4.0380    0.0000 H       1  UNL1        0.0660
     42 H          10.5245   -2.3059    0.0000 H       1  UNL1        0.2921
     43 H           7.5245   -4.0380    0.0000 H       1  UNL1        0.2921
@<TRIPOS>BOND
     1     1     7   ar
     2     1    13   ar
     3     2    10    1
     4     2    17    1
     5     3    11    1
     6     3    24    1
     7     4    22    1
     8     4    42    1
     9     5    23    1
    10     5    43    1
    11     6     7   ar
    12     6     9    1
    13     6    10   ar
    14     7     8   ar
    15     8    11   ar
    16     8    12   ar
    17     9    15    1
    18     9    26    1
    19     9    27    1
    20    10    14   ar
    21    11    14   ar
    22    12    13   ar
    23    12    28    1
    24    13    18    1
    25    14    29    1
    26    15    16    2
    27    15    30    1
    28    16    17    1
    29    16    19    1
    30    17    31    1
    31    17    32    1
    32    18    20   ar
    33    18    21   ar
    34    19    33    1
    35    19    34    1
    36    19    35    1
    37    20    23   ar
    38    20    36    1
    39    21    22   ar
    40    21    37    1
    41    22    25   ar
    42    23    25   ar
    43    24    39    1
    44    24    40    1
    45    24    41    1
    46    25    38    1
