@<TRIPOS>MOLECULE
IMPHY008132
 43 48 0 0 0
SMALL
GASTEIGER

@<TRIPOS>ATOM
      1 O           2.6177   -1.6754    0.0000 O.3     1  UNL1       -0.3521
      2 O           6.1666    1.3457    0.0000 O.3     1  UNL1       -0.3647
      3 O           2.0000    1.1034    0.0000 O.3     1  UNL1       -0.4578
      4 O           4.3621    3.3943    0.0000 O.3     1  UNL1       -0.3880
      5 O           4.3659   -2.7442    0.0000 O.3     1  UNL1       -0.4507
      6 O           2.0186    2.8609    0.0000 O.2     1  UNL1       -0.2501
      7 O           6.1360   -2.7201    0.0000 O.2     1  UNL1       -0.2456
      8 C           4.3500    0.3250    0.0000 C.3     1  UNL1        0.0284
      9 C           3.4840    0.8250    0.0000 C.3     1  UNL1        0.0283
     10 C           5.2600    0.8319    0.0000 C.3     1  UNL1        0.0973
     11 C           3.4840   -1.1750    0.0000 C.3     1  UNL1        0.1618
     12 C           3.4679    1.8665    0.0000 C.3     1  UNL1        0.1003
     13 C           2.6179    0.3250    0.0000 C.3     1  UNL1        0.1370
     14 C           2.6179   -0.6750    0.0000 C.3     1  UNL1        0.1337
     15 C           5.2680    1.8735    0.0000 C.3     1  UNL1        0.1129
     16 C           4.3500   -0.6750    0.0000 C.2     1  UNL1       -0.0161
     17 C           4.3659    2.3943    0.0000 C.3     1  UNL1        0.0996
     18 C           5.2160   -0.1750    0.0000 C.3     1  UNL1       -0.0529
     19 C           3.4679   -2.2165    0.0000 C.3     1  UNL1        0.1565
     20 C           2.4799    1.9737    0.0000 C.2     1  UNL1        0.3164
     21 C           2.9579    2.7267    0.0000 C.3     1  UNL1       -0.0465
     22 C           5.2600   -1.1818    0.0000 C.2     1  UNL1        0.0253
     23 C           5.2680   -2.2234    0.0000 C.2     1  UNL1        0.3327
     24 C           2.5961   -2.7064    0.0000 C.2     1  UNL1       -0.0479
     25 C           2.5846   -3.7064    0.0000 C.2     1  UNL1       -0.0991
     26 H           4.2201    1.2500    0.0000 H       1  UNL1        0.0358
     27 H           5.5637    0.2914    0.0000 H       1  UNL1        0.0632
     28 H           1.8153    0.0452    0.0000 H       1  UNL1        0.0765
     29 H           1.7679   -0.6749    0.0000 H       1  UNL1        0.0667
     30 H           5.5800    2.4093    0.0000 H       1  UNL1        0.0649
     31 H           4.9023    2.7053    0.0000 H       1  UNL1        0.0631
     32 H           4.9060   -0.7119    0.0000 H       1  UNL1        0.0239
     33 H           5.7529   -0.4850    0.0000 H       1  UNL1        0.0239
     34 H           5.5260    0.3620    0.0000 H       1  UNL1        0.0239
     35 H           3.4619   -2.8364    0.0000 H       1  UNL1        0.0813
     36 H           3.4912    3.0429    0.0000 H       1  UNL1        0.0241
     37 H           2.6417    3.2600    0.0000 H       1  UNL1        0.0241
     38 H           2.4246    2.4105    0.0000 H       1  UNL1        0.0241
     39 H           5.7933   -0.8656    0.0000 H       1  UNL1        0.0689
     40 H           4.8978    3.7064    0.0000 H       1  UNL1        0.2099
     41 H           2.0628   -2.3902    0.0000 H       1  UNL1        0.0604
     42 H           2.0441   -4.0101    0.0000 H       1  UNL1        0.0533
     43 H           3.1179   -4.0225    0.0000 H       1  UNL1        0.0533
@<TRIPOS>BOND
     1    11     1    1
     2     1    14    1
     3    10     2    1
     4    15     2    1
     5     3    13    1
     6     3    20    1
     7    17     4    1
     8     4    40    1
     9     5    19    1
    10     5    23    1
    11     6    20    2
    12     7    23    2
    13     8     9    1
    14     8    10    1
    15     8    16    1
    16     8    18    1
    17     9    12    1
    18     9    13    1
    19     9    26    1
    20    10    15    1
    21    10    27    1
    22    11    14    1
    23    11    16    1
    24    11    19    1
    25    12    17    1
    26    12    20    1
    27    12    21    1
    28    13    14    1
    29    13    28    1
    30    14    29    1
    31    15    17    1
    32    15    30    1
    33    16    22    2
    34    17    31    1
    35    18    32    1
    36    18    33    1
    37    18    34    1
    38    19    24    1
    39    19    35    1
    40    21    36    1
    41    21    37    1
    42    21    38    1
    43    22    23    1
    44    22    39    1
    45    24    25    2
    46    24    41    1
    47    25    42    1
    48    25    43    1
