@<TRIPOS>MOLECULE
IMPHY001628
 26 28 0 0 0
SMALL
GASTEIGER

@<TRIPOS>ATOM
      1 O           8.1912   -1.8137    0.0000 O.3     1  UNL1       -0.3841
      2 O           6.0682    1.9416    0.0000 O.2     1  UNL1       -0.2669
      3 O           2.5381    0.9657    0.0000 O.3     1  UNL1       -0.5067
      4 N           6.9343    0.4416    0.0000 N.ar    1  UNL1       -0.2940
      5 N           6.0682   -1.0584    0.0000 N.ar    1  UNL1       -0.2308
      6 C           8.4641   -0.0584    0.0000 C.3     1  UNL1       -0.0016
      7 C           7.8805   -0.8632    0.0000 C.3     1  UNL1        0.1145
      8 C           7.8805    0.7463    0.0000 C.3     1  UNL1        0.0306
      9 C           6.9343   -0.5584    0.0000 C.ar    1  UNL1        0.1418
     10 C           6.0682    0.9416    0.0000 C.ar    1  UNL1        0.2620
     11 C           5.2022    0.4416    0.0000 C.ar    1  UNL1        0.0683
     12 C           5.2022   -0.5584    0.0000 C.ar    1  UNL1        0.0785
     13 C           4.3083    0.9762    0.0000 C.ar    1  UNL1       -0.0058
     14 C           4.3083   -1.0931    0.0000 C.ar    1  UNL1       -0.0321
     15 C           3.4022    0.4624    0.0000 C.ar    1  UNL1        0.1177
     16 C           3.4022   -0.5793    0.0000 C.ar    1  UNL1       -0.0181
     17 H           8.9250   -0.4732    0.0000 H       1  UNL1        0.0312
     18 H           8.9250    0.3563    0.0000 H       1  UNL1        0.0312
     19 H           8.4930   -0.9594    0.0000 H       1  UNL1        0.0675
     20 H           8.4179    1.0555    0.0000 H       1  UNL1        0.0494
     21 H           7.6295    1.3132    0.0000 H       1  UNL1        0.0494
     22 H           8.7978   -1.9416    0.0000 H       1  UNL1        0.2104
     23 H           4.3154    1.5962    0.0000 H       1  UNL1        0.0662
     24 H           4.3154   -1.7131    0.0000 H       1  UNL1        0.0640
     25 H           2.8665   -0.8913    0.0000 H       1  UNL1        0.0655
     26 H           2.0000    0.6578    0.0000 H       1  UNL1        0.2921
@<TRIPOS>BOND
     1     7     1    1
     2     1    22    1
     3     2    10    2
     4     3    15    1
     5     3    26    1
     6     4     8    1
     7     4     9   ar
     8     4    10   ar
     9     5     9   ar
    10     5    12   ar
    11     6     7    1
    12     6     8    1
    13     6    17    1
    14     6    18    1
    15     7     9    1
    16     7    19    1
    17     8    20    1
    18     8    21    1
    19    10    11   ar
    20    11    12   ar
    21    11    13   ar
    22    12    14   ar
    23    13    15   ar
    24    13    23    1
    25    14    16   ar
    26    14    24    1
    27    15    16   ar
    28    16    25    1
