@<TRIPOS>MOLECULE
IMPHY008725
 16 16 0 0 0
SMALL
GASTEIGER

@<TRIPOS>ATOM
      1 C           2.8090    0.2694    0.0000 C.3     1  UNL1       -0.0255
      2 C           2.0000   -0.3184    0.0000 C.3     1  UNL1       -0.0436
      3 C           2.3090   -1.2694    0.0000 C.3     1  UNL1       -0.0342
      4 C           3.6180   -0.3184    0.0000 C.2     1  UNL1       -0.0851
      5 C           3.3090   -1.2694    0.0000 C.2     1  UNL1       -0.0877
      6 C           2.8090    1.2694    0.0000 C.3     1  UNL1       -0.0589
      7 H           3.5664    0.6553    0.0000 H       1  UNL1        0.0340
      8 H           1.6900    0.2186    0.0000 H       1  UNL1        0.0274
      9 H           1.4336   -0.5705    0.0000 H       1  UNL1        0.0274
     10 H           1.7026   -1.3983    0.0000 H       1  UNL1        0.0307
     11 H           2.3738   -1.8860    0.0000 H       1  UNL1        0.0307
     12 H           4.2077   -0.1268    0.0000 H       1  UNL1        0.0572
     13 H           3.6734   -1.7710    0.0000 H       1  UNL1        0.0569
     14 H           3.4290    1.2694    0.0000 H       1  UNL1        0.0235
     15 H           2.8090    1.8894    0.0000 H       1  UNL1        0.0235
     16 H           2.1890    1.2694    0.0000 H       1  UNL1        0.0235
@<TRIPOS>BOND
     1     1     2    1
     2     1     4    1
     3     1     6    1
     4     1     7    1
     5     2     3    1
     6     2     8    1
     7     2     9    1
     8     3     5    1
     9     3    10    1
    10     3    11    1
    11     4     5    2
    12     4    12    1
    13     5    13    1
    14     6    14    1
    15     6    15    1
    16     6    16    1
