@<TRIPOS>MOLECULE
IMPHY001916
 51 54 0 0 0
SMALL
GASTEIGER

@<TRIPOS>ATOM
      1 O           8.1301    0.9163    0.0000 O.co2   1  UNL1       -0.7743
      2 O           5.5904   -2.4576    0.0000 O.3     1  UNL1       -0.4672
      3 O           4.8846   -0.8760    0.0000 O.2     1  UNL1       -0.2496
      4 O           2.8680   -0.1079    0.0000 O.3     1  UNL1       -0.4914
      5 O           2.8680    1.9404    0.0000 O.3     1  UNL1       -0.4914
      6 N           7.2641    0.4163    0.0000 N.3     1  UNL1        0.2269
      7 C           6.6073   -1.0555    0.0000 C.3     1  UNL1        0.1398
      8 C           6.3981   -0.0837    0.0000 C.3     1  UNL1        0.0249
      9 C           8.0011   -0.2508    0.0000 C.3     1  UNL1       -0.0089
     10 C           7.5960   -1.1586    0.0000 C.2     1  UNL1       -0.0067
     11 C           5.9865   -1.8843    0.0000 C.3     1  UNL1       -0.0273
     12 C           7.2641    1.4163    0.0000 C.3     1  UNL1       -0.0277
     13 C           5.5320    0.4163    0.0000 C.ar    1  UNL1        0.0085
     14 C           6.3981    1.9163    0.0000 C.3     1  UNL1        0.0132
     15 C           6.4012   -2.8331    0.0000 C.3     1  UNL1       -0.0481
     16 C           5.5320    1.4163    0.0000 C.ar    1  UNL1       -0.0301
     17 C           8.0325   -2.0975    0.0000 C.2     1  UNL1       -0.0785
     18 C           5.6941   -1.4630    0.0000 C.2     1  UNL1        0.3232
     19 C           7.4311   -2.9404    0.0000 C.3     1  UNL1       -0.0343
     20 C           4.6381   -0.1184    0.0000 C.ar    1  UNL1       -0.0075
     21 C           4.6381    1.9510    0.0000 C.ar    1  UNL1       -0.0125
     22 C           3.7320    0.3955    0.0000 C.ar    1  UNL1        0.1620
     23 C           3.7320    1.4371    0.0000 C.ar    1  UNL1        0.1618
     24 C           4.6772   -2.8651    0.0000 C.3     1  UNL1        0.0817
     25 C           2.0000    0.3888    0.0000 C.3     1  UNL1        0.0790
     26 C           2.8718    2.9404    0.0000 C.3     1  UNL1        0.0790
     27 H           5.7111   -0.5842    0.0000 H       1  UNL1        0.0918
     28 H           8.5376   -0.5616    0.0000 H       1  UNL1        0.0863
     29 H           8.3666    0.2501    0.0000 H       1  UNL1        0.0863
     30 H           5.5612   -1.4332    0.0000 H       1  UNL1        0.0281
     31 H           5.4693   -2.2261    0.0000 H       1  UNL1        0.0281
     32 H           7.8747    1.3086    0.0000 H       1  UNL1        0.0817
     33 H           7.4762    1.9989    0.0000 H       1  UNL1        0.0817
     34 H           6.7966    2.3912    0.0000 H       1  UNL1        0.0365
     35 H           5.9995    2.3912    0.0000 H       1  UNL1        0.0365
     36 H           5.7990   -2.9805    0.0000 H       1  UNL1        0.0269
     37 H           6.4434   -3.4516    0.0000 H       1  UNL1        0.0269
     38 H           8.6499   -2.1547    0.0000 H       1  UNL1        0.0574
     39 H           7.2622   -3.5370    0.0000 H       1  UNL1        0.0307
     40 H           7.9900   -3.2089    0.0000 H       1  UNL1        0.0307
     41 H           4.6453   -0.7383    0.0000 H       1  UNL1        0.0660
     42 H           4.6453    2.5709    0.0000 H       1  UNL1        0.0658
     43 H           4.4245   -2.2990    0.0000 H       1  UNL1        0.0661
     44 H           4.1110   -3.1178    0.0000 H       1  UNL1        0.0661
     45 H           4.9298   -3.4313    0.0000 H       1  UNL1        0.0661
     46 H           2.3079    0.9269    0.0000 H       1  UNL1        0.0660
     47 H           1.4619    0.6967    0.0000 H       1  UNL1        0.0660
     48 H           1.6921   -0.1493    0.0000 H       1  UNL1        0.0660
     49 H           3.4918    2.9380    0.0000 H       1  UNL1        0.0660
     50 H           2.8742    3.5604    0.0000 H       1  UNL1        0.0660
     51 H           2.2518    2.9428    0.0000 H       1  UNL1        0.0660
@<TRIPOS>UNITY_ATOM_ATTR
1 1
charge -1
6 1
charge 1
@<TRIPOS>BOND
     1     1     6    1
     2     2    18    1
     3     2    24    1
     4     3    18    2
     5     4    22    1
     6     4    25    1
     7     5    23    1
     8     5    26    1
     9     6     8    1
    10     6     9    1
    11     6    12    1
    12     7     8    1
    13     7    10    1
    14     7    11    1
    15     7    18    1
    16     8    13    1
    17     8    27    1
    18     9    10    1
    19     9    28    1
    20     9    29    1
    21    10    17    2
    22    11    15    1
    23    11    30    1
    24    11    31    1
    25    12    14    1
    26    12    32    1
    27    12    33    1
    28    13    16   ar
    29    13    20   ar
    30    14    16    1
    31    14    34    1
    32    14    35    1
    33    15    19    1
    34    15    36    1
    35    15    37    1
    36    16    21   ar
    37    17    19    1
    38    17    38    1
    39    19    39    1
    40    19    40    1
    41    20    22   ar
    42    20    41    1
    43    21    23   ar
    44    21    42    1
    45    22    23   ar
    46    24    43    1
    47    24    44    1
    48    24    45    1
    49    25    46    1
    50    25    47    1
    51    25    48    1
    52    26    49    1
    53    26    50    1
    54    26    51    1
