@<TRIPOS>MOLECULE
IMPHY009099
 56 59 0 0 0
SMALL
GASTEIGER

@<TRIPOS>ATOM
      1 O           7.7925   -2.0159    0.0000 O.3     1  UNL1       -0.4606
      2 O           8.8310    0.1501    0.0000 O.3     1  UNL1       -0.3829
      3 O           4.3198    1.0156    0.0000 O.2     1  UNL1       -0.2940
      4 O           2.5381    0.0052    0.0000 O.3     1  UNL1       -0.3843
      5 O           5.1804    1.5125    0.0000 O.2     1  UNL1       -0.2885
      6 O           6.9464    2.5503    0.0000 O.2     1  UNL1       -0.4916
      7 O           9.5140   -2.0487    0.0000 O.2     1  UNL1       -0.2507
      8 C           6.9343   -0.5190    0.0000 C.3     1  UNL1        0.0489
      9 C           5.2022   -0.5190    0.0000 C.3     1  UNL1        0.0426
     10 C           6.0682   -0.0190    0.0000 C.3     1  UNL1        0.0493
     11 C           5.2022   -1.5190    0.0000 C.3     1  UNL1       -0.0221
     12 C           6.9343   -1.5190    0.0000 C.3     1  UNL1        0.1123
     13 C           7.8443   -0.0122    0.0000 C.3     1  UNL1        0.1099
     14 C           6.0682   -2.0190    0.0000 C.3     1  UNL1       -0.0110
     15 C           4.3083   -2.0537    0.0000 C.3     1  UNL1       -0.0373
     16 C           4.3083    0.0157    0.0000 C.2     1  UNL1        0.1683
     17 C           6.9343    0.4810    0.0000 C.3     1  UNL1       -0.0525
     18 C           6.0522    1.0225    0.0000 C.2     1  UNL1        0.2020
     19 C           5.2022    0.4810    0.0000 C.3     1  UNL1       -0.0518
     20 C           3.4022   -1.5398    0.0000 C.3     1  UNL1       -0.0170
     21 C           8.6836   -0.5404    0.0000 C.3     1  UNL1        0.0783
     22 C           7.8523    1.0294    0.0000 C.2     1  UNL1        0.0048
     23 C           3.4022   -0.4982    0.0000 C.3     1  UNL1        0.1138
     24 C           6.9502    1.5503    0.0000 C.2     1  UNL1        0.1643
     25 C           4.3198   -3.0536    0.0000 C.3     1  UNL1       -0.0620
     26 C           8.6580   -1.5318    0.0000 C.2     1  UNL1        0.3105
     27 C           8.7202    1.5261    0.0000 C.3     1  UNL1       -0.0372
     28 C           7.8105    3.0536    0.0000 C.3     1  UNL1        0.0789
     29 H           5.3289    0.4003    0.0000 H       1  UNL1        0.0399
     30 H           5.2088   -2.3690    0.0000 H       1  UNL1        0.0314
     31 H           6.9337   -2.3690    0.0000 H       1  UNL1        0.0741
     32 H           5.6697   -2.4939    0.0000 H       1  UNL1        0.0304
     33 H           6.4668   -2.4939    0.0000 H       1  UNL1        0.0304
     34 H           3.7744   -2.3688    0.0000 H       1  UNL1        0.0302
     35 H           7.5543    0.4810    0.0000 H       1  UNL1        0.0237
     36 H           6.9343    1.1010    0.0000 H       1  UNL1        0.0237
     37 H           6.3143    0.4810    0.0000 H       1  UNL1        0.0237
     38 H           5.8222    0.4810    0.0000 H       1  UNL1        0.0239
     39 H           5.2022    1.1010    0.0000 H       1  UNL1        0.0239
     40 H           4.5822    0.4810    0.0000 H       1  UNL1        0.0239
     41 H           2.7914   -1.4337    0.0000 H       1  UNL1        0.0297
     42 H           3.1932   -2.1235    0.0000 H       1  UNL1        0.0297
     43 H           9.2907   -0.6663    0.0000 H       1  UNL1        0.0409
     44 H           8.9154    0.0347    0.0000 H       1  UNL1        0.0409
     45 H           2.8647   -0.8071    0.0000 H       1  UNL1        0.0673
     46 H           3.6999   -3.0608    0.0000 H       1  UNL1        0.0233
     47 H           4.3270   -3.6736    0.0000 H       1  UNL1        0.0233
     48 H           4.9398   -3.0464    0.0000 H       1  UNL1        0.0233
     49 H           9.0498    0.7302    0.0000 H       1  UNL1        0.2106
     50 H           9.0282    0.9880    0.0000 H       1  UNL1        0.0277
     51 H           9.2584    1.8340    0.0000 H       1  UNL1        0.0277
     52 H           8.4123    2.0642    0.0000 H       1  UNL1        0.0277
     53 H           2.0000   -0.3028    0.0000 H       1  UNL1        0.2104
     54 H           8.1225    2.5178    0.0000 H       1  UNL1        0.0660
     55 H           8.3462    3.3657    0.0000 H       1  UNL1        0.0660
     56 H           7.4984    3.5893    0.0000 H       1  UNL1        0.0660
@<TRIPOS>BOND
     1     1    12    1
     2     1    26    1
     3    13     2    1
     4     2    49    1
     5     3    16    2
     6    23     4    1
     7     4    53    1
     8     5    18    2
     9     6    24    1
    10     6    28    1
    11     7    26    2
    12     8    10    1
    13     8    12    1
    14     8    13    1
    15     8    17    1
    16     9    10    1
    17     9    11    1
    18     9    16    1
    19     9    19    1
    20    10    18    1
    21    10    29    1
    22    11    14    1
    23    11    15    1
    24    11    30    1
    25    12    14    1
    26    12    31    1
    27    13    21    1
    28    13    22    1
    29    14    32    1
    30    14    33    1
    31    15    20    1
    32    15    25    1
    33    15    34    1
    34    16    23    1
    35    17    35    1
    36    17    36    1
    37    17    37    1
    38    18    24    1
    39    19    38    1
    40    19    39    1
    41    19    40    1
    42    20    23    1
    43    20    41    1
    44    20    42    1
    45    21    26    1
    46    21    43    1
    47    21    44    1
    48    22    24    2
    49    22    27    1
    50    23    45    1
    51    25    46    1
    52    25    47    1
    53    25    48    1
    54    27    50    1
    55    27    51    1
    56    27    52    1
    57    28    54    1
    58    28    55    1
    59    28    56    1
