@<TRIPOS>MOLECULE
IMPHY003161
 39 42 0 0 0
SMALL
GASTEIGER

@<TRIPOS>ATOM
      1 O           6.8962    2.9330    0.0000 O.3     1  UNL1       -0.3618
      2 O           5.5301    0.5670    0.0000 O.3     1  UNL1       -0.4824
      3 O           7.3424   -0.6283    0.0000 O.2     1  UNL1       -0.4590
      4 O           3.7702   -0.3984    0.0000 O.2     1  UNL1       -0.4182
      5 O           5.5301   -3.4330    0.0000 O.3     1  UNL1       -0.4937
      6 O           2.0000   -0.4089    0.0000 O.2     1  UNL1       -0.2452
      7 C           5.8961    2.9330    0.0000 C.3     1  UNL1        0.0938
      8 C           6.3961    2.0670    0.0000 C.3     1  UNL1        0.1216
      9 C           6.3961    1.0670    0.0000 C.3     1  UNL1        0.1187
     10 C           5.8961    3.9330    0.0000 C.3     1  UNL1       -0.0335
     11 C           5.0301    2.4330    0.0000 C.3     1  UNL1       -0.0335
     12 C           5.5301   -0.4330    0.0000 C.ar    1  UNL1        0.2066
     13 C           6.3961   -0.9330    0.0000 C.ar    1  UNL1        0.1834
     14 C           4.6641   -0.9330    0.0000 C.ar    1  UNL1        0.1877
     15 C           6.3961   -1.9330    0.0000 C.ar    1  UNL1        0.0662
     16 C           4.6641   -1.9330    0.0000 C.ar    1  UNL1        0.0637
     17 C           5.5301   -2.4330    0.0000 C.ar    1  UNL1        0.1417
     18 C           7.3424   -2.2378    0.0000 C.ar    1  UNL1       -0.0125
     19 C           3.7702   -2.4677    0.0000 C.ar    1  UNL1       -0.0406
     20 C           7.9260   -1.4330    0.0000 C.ar    1  UNL1        0.0934
     21 C           2.8641   -1.9538    0.0000 C.ar    1  UNL1        0.0237
     22 C           2.8641   -0.9122    0.0000 C.ar    1  UNL1        0.3373
     23 C           6.3961   -3.9330    0.0000 C.3     1  UNL1        0.0788
     24 H           6.9950    1.9065    0.0000 H       1  UNL1        0.0659
     25 H           6.6082    0.4844    0.0000 H       1  UNL1        0.0724
     26 H           7.0067    1.1746    0.0000 H       1  UNL1        0.0724
     27 H           6.5162    3.9330    0.0000 H       1  UNL1        0.0258
     28 H           5.8961    4.5530    0.0000 H       1  UNL1        0.0258
     29 H           5.2762    3.9330    0.0000 H       1  UNL1        0.0258
     30 H           4.7201    2.9700    0.0000 H       1  UNL1        0.0258
     31 H           4.4932    2.1230    0.0000 H       1  UNL1        0.0258
     32 H           5.3401    1.8961    0.0000 H       1  UNL1        0.0258
     33 H           7.5350   -2.8271    0.0000 H       1  UNL1        0.0656
     34 H           3.7773   -3.0876    0.0000 H       1  UNL1        0.0628
     35 H           8.5460   -1.4330    0.0000 H       1  UNL1        0.1030
     36 H           2.3284   -2.2659    0.0000 H       1  UNL1        0.0689
     37 H           6.0862   -4.4700    0.0000 H       1  UNL1        0.0660
     38 H           6.9331   -4.2430    0.0000 H       1  UNL1        0.0660
     39 H           6.7062   -3.3961    0.0000 H       1  UNL1        0.0660
@<TRIPOS>BOND
     1     1     7    1
     2     1     8    1
     3     2     9    1
     4     2    12    1
     5     3    13   ar
     6     3    20   ar
     7     4    14   ar
     8     4    22   ar
     9     5    17    1
    10     5    23    1
    11     6    22    2
    12     7     8    1
    13     7    10    1
    14     7    11    1
    15     8     9    1
    16     8    24    1
    17     9    25    1
    18     9    26    1
    19    10    27    1
    20    10    28    1
    21    10    29    1
    22    11    30    1
    23    11    31    1
    24    11    32    1
    25    12    13   ar
    26    12    14   ar
    27    13    15   ar
    28    14    16   ar
    29    15    17   ar
    30    15    18   ar
    31    16    17   ar
    32    16    19   ar
    33    18    20   ar
    34    18    33    1
    35    19    21   ar
    36    19    34    1
    37    20    35    1
    38    21    22   ar
    39    21    36    1
    40    23    37    1
    41    23    38    1
    42    23    39    1
