@<TRIPOS>MOLECULE
IMPHY007018
 31 31 0 0 0
SMALL
GASTEIGER

@<TRIPOS>ATOM
      1 O           2.0000   -2.5000    0.0000 O.2     1  UNL1       -0.4911
      2 O           2.0000   -0.5000    0.0000 O.2     1  UNL1       -0.2837
      3 O           5.4641   -2.5000    0.0000 O.2     1  UNL1       -0.2878
      4 C           4.5981    1.0000    0.0000 C.3     1  UNL1       -0.0489
      5 C           4.5981    2.0000    0.0000 C.3     1  UNL1       -0.0530
      6 C           3.7320    0.5000    0.0000 C.3     1  UNL1       -0.0238
      7 C           5.4641    2.5000    0.0000 C.3     1  UNL1       -0.0559
      8 C           3.7320   -0.5000    0.0000 C.2     1  UNL1        0.0066
      9 C           2.8660   -1.0000    0.0000 C.2     1  UNL1        0.2236
     10 C           5.4641    3.5000    0.0000 C.3     1  UNL1       -0.0653
     11 C           4.5981   -1.0000    0.0000 C.2     1  UNL1       -0.0079
     12 C           2.8660   -2.0000    0.0000 C.2     1  UNL1        0.1704
     13 C           4.5981   -2.0000    0.0000 C.2     1  UNL1        0.1829
     14 C           3.7320   -2.5000    0.0000 C.2     1  UNL1        0.0306
     15 C           2.0000   -3.5000    0.0000 C.3     1  UNL1        0.0790
     16 H           4.8101    0.4174    0.0000 H       1  UNL1        0.0268
     17 H           5.2087    1.1077    0.0000 H       1  UNL1        0.0268
     18 H           4.3860    2.5826    0.0000 H       1  UNL1        0.0265
     19 H           3.9875    1.8923    0.0000 H       1  UNL1        0.0265
     20 H           3.5200    1.0826    0.0000 H       1  UNL1        0.0314
     21 H           3.1215    0.3923    0.0000 H       1  UNL1        0.0314
     22 H           5.6762    1.9174    0.0000 H       1  UNL1        0.0263
     23 H           6.0747    2.6077    0.0000 H       1  UNL1        0.0263
     24 H           6.0841    3.5000    0.0000 H       1  UNL1        0.0230
     25 H           5.4641    4.1200    0.0000 H       1  UNL1        0.0230
     26 H           4.8441    3.5000    0.0000 H       1  UNL1        0.0230
     27 H           5.1350   -0.6900    0.0000 H       1  UNL1        0.0660
     28 H           3.7320   -3.1200    0.0000 H       1  UNL1        0.0694
     29 H           1.3800   -3.5000    0.0000 H       1  UNL1        0.0660
     30 H           2.0000   -4.1200    0.0000 H       1  UNL1        0.0660
     31 H           2.6200   -3.5000    0.0000 H       1  UNL1        0.0660
@<TRIPOS>BOND
     1     1    12    1
     2     1    15    1
     3     2     9    2
     4     3    13    2
     5     4     5    1
     6     4     6    1
     7     4    16    1
     8     4    17    1
     9     5     7    1
    10     5    18    1
    11     5    19    1
    12     6     8    1
    13     6    20    1
    14     6    21    1
    15     7    10    1
    16     7    22    1
    17     7    23    1
    18     8     9    1
    19     8    11    2
    20     9    12    1
    21    10    24    1
    22    10    25    1
    23    10    26    1
    24    11    13    1
    25    11    27    1
    26    12    14    2
    27    13    14    1
    28    14    28    1
    29    15    29    1
    30    15    30    1
    31    15    31    1
