@<TRIPOS>MOLECULE
IMPHY004089
 45 45 0 0 0
SMALL
GASTEIGER

@<TRIPOS>ATOM
      1 S           4.5981    1.3100    0.0000 S.3     1  UNL1       -0.0595
      2 S           4.5981    2.3100    0.0000 S.3     1  UNL1       -0.0843
      3 O           2.0000    2.8100    0.0000 O.3     1  UNL1       -0.3947
      4 O           5.4641    0.8100    0.0000 O.2     1  UNL1       -0.2790
      5 N           4.5981   -0.6900    0.0000 N.am    1  UNL1       -0.2727
      6 N           6.3301   -3.6900    0.0000 N.ar    1  UNL1       -0.2177
      7 N           7.1962   -2.1900    0.0000 N.ar    1  UNL1       -0.2401
      8 N           4.5981   -3.6900    0.0000 N.pl3   1  UNL1       -0.3428
      9 C           4.5981   -1.6900    0.0000 C.3     1  UNL1        0.0490
     10 C           3.7320   -0.1900    0.0000 C.2     1  UNL1        0.0207
     11 C           3.7320    0.8100    0.0000 C.2     1  UNL1        0.0154
     12 C           5.4641   -2.1900    0.0000 C.ar    1  UNL1        0.0278
     13 C           2.8660    1.3100    0.0000 C.3     1  UNL1        0.0038
     14 C           2.8660   -0.6900    0.0000 C.3     1  UNL1       -0.0254
     15 C           5.4641   -3.1900    0.0000 C.ar    1  UNL1        0.1244
     16 C           2.8660    2.3100    0.0000 C.3     1  UNL1        0.0487
     17 C           6.3301   -1.6900    0.0000 C.ar    1  UNL1        0.0376
     18 C           5.4641   -0.1900    0.0000 C.2     1  UNL1        0.2068
     19 C           7.1962   -3.1900    0.0000 C.ar    1  UNL1        0.1280
     20 C           8.0622   -3.6900    0.0000 C.3     1  UNL1       -0.0046
     21 C           5.4641    2.8100    0.0000 C.3     1  UNL1        0.0221
     22 C           5.4641    3.8100    0.0000 C.2     1  UNL1       -0.0805
     23 C           6.3301    4.3100    0.0000 C.2     1  UNL1       -0.1018
     24 H           3.9875   -1.5823    0.0000 H       1  UNL1        0.0519
     25 H           4.3860   -2.2726    0.0000 H       1  UNL1        0.0519
     26 H           2.2554    1.4177    0.0000 H       1  UNL1        0.0341
     27 H           2.6540    0.7274    0.0000 H       1  UNL1        0.0341
     28 H           2.5560   -0.1531    0.0000 H       1  UNL1        0.0290
     29 H           2.3291   -1.0000    0.0000 H       1  UNL1        0.0290
     30 H           3.1760   -1.2269    0.0000 H       1  UNL1        0.0290
     31 H           3.4766    2.2023    0.0000 H       1  UNL1        0.0560
     32 H           3.0781    2.8926    0.0000 H       1  UNL1        0.0560
     33 H           6.3301   -1.0700    0.0000 H       1  UNL1        0.0834
     34 H           6.0010   -0.5000    0.0000 H       1  UNL1        0.1257
     35 H           4.5981   -4.3100    0.0000 H       1  UNL1        0.1437
     36 H           4.0611   -3.3800    0.0000 H       1  UNL1        0.1437
     37 H           7.7522   -4.2269    0.0000 H       1  UNL1        0.0308
     38 H           8.5991   -4.0000    0.0000 H       1  UNL1        0.0308
     39 H           8.3722   -3.1531    0.0000 H       1  UNL1        0.0308
     40 H           2.0000    3.4300    0.0000 H       1  UNL1        0.2094
     41 H           5.6762    2.2274    0.0000 H       1  UNL1        0.0427
     42 H           6.0747    2.9177    0.0000 H       1  UNL1        0.0427
     43 H           4.9272    4.1200    0.0000 H       1  UNL1        0.0575
     44 H           6.8671    4.0000    0.0000 H       1  UNL1        0.0532
     45 H           6.3301    4.9300    0.0000 H       1  UNL1        0.0532
@<TRIPOS>BOND
     1     1     2    1
     2     1    11    1
     3     2    21    1
     4     3    16    1
     5     3    40    1
     6     4    18    2
     7     5     9    1
     8     5    10    1
     9     5    18   am
    10     6    15   ar
    11     6    19   ar
    12     7    17   ar
    13     7    19   ar
    14     8    15    1
    15     8    35    1
    16     8    36    1
    17     9    12    1
    18     9    24    1
    19     9    25    1
    20    10    11    2
    21    10    14    1
    22    11    13    1
    23    12    15   ar
    24    12    17   ar
    25    13    16    1
    26    13    26    1
    27    13    27    1
    28    14    28    1
    29    14    29    1
    30    14    30    1
    31    16    31    1
    32    16    32    1
    33    17    33    1
    34    18    34    1
    35    19    20    1
    36    20    37    1
    37    20    38    1
    38    20    39    1
    39    21    22    1
    40    21    41    1
    41    21    42    1
    42    22    23    2
    43    22    43    1
    44    23    44    1
    45    23    45    1
