@<TRIPOS>MOLECULE
IMPHY015225
 26 25 0 0 0
SMALL
GASTEIGER

@<TRIPOS>ATOM
      1 C           6.3301    0.2500    0.0000 C.2     1  UNL1       -0.0517
      2 C           5.4641   -0.2500    0.0000 C.2     1  UNL1       -0.0479
      3 C           6.3301    1.2500    0.0000 C.3     1  UNL1       -0.0398
      4 C           5.4641   -1.2500    0.0000 C.3     1  UNL1       -0.0395
      5 C           7.1962   -0.2500    0.0000 C.2     1  UNL1       -0.0839
      6 C           4.5981    0.2500    0.0000 C.2     1  UNL1       -0.0589
      7 C           8.0622    0.2500    0.0000 C.3     1  UNL1       -0.0463
      8 C           3.7320   -0.2500    0.0000 C.2     1  UNL1       -0.0657
      9 C           2.8660    0.2500    0.0000 C.2     1  UNL1       -0.0871
     10 C           2.0000   -0.2500    0.0000 C.3     1  UNL1       -0.0465
     11 H           6.9501    1.2500    0.0000 H       1  UNL1        0.0278
     12 H           6.3301    1.8700    0.0000 H       1  UNL1        0.0278
     13 H           5.7101    1.2500    0.0000 H       1  UNL1        0.0278
     14 H           4.8441   -1.2500    0.0000 H       1  UNL1        0.0278
     15 H           5.4641   -1.8700    0.0000 H       1  UNL1        0.0278
     16 H           6.0841   -1.2500    0.0000 H       1  UNL1        0.0278
     17 H           7.1962   -0.8700    0.0000 H       1  UNL1        0.0572
     18 H           4.5981    0.8700    0.0000 H       1  UNL1        0.0620
     19 H           8.3722   -0.2869    0.0000 H       1  UNL1        0.0272
     20 H           8.5991    0.5600    0.0000 H       1  UNL1        0.0272
     21 H           7.7522    0.7869    0.0000 H       1  UNL1        0.0272
     22 H           3.7320   -0.8700    0.0000 H       1  UNL1        0.0614
     23 H           2.8660    0.8700    0.0000 H       1  UNL1        0.0569
     24 H           1.6900    0.2869    0.0000 H       1  UNL1        0.0272
     25 H           1.4631   -0.5600    0.0000 H       1  UNL1        0.0272
     26 H           2.3100   -0.7869    0.0000 H       1  UNL1        0.0272
@<TRIPOS>BOND
     1     1     2    1
     2     1     3    1
     3     1     5    2
     4     2     4    1
     5     2     6    2
     6     3    11    1
     7     3    12    1
     8     3    13    1
     9     4    14    1
    10     4    15    1
    11     4    16    1
    12     5     7    1
    13     5    17    1
    14     6     8    1
    15     6    18    1
    16     7    19    1
    17     7    20    1
    18     7    21    1
    19     8     9    2
    20     8    22    1
    21     9    10    1
    22     9    23    1
    23    10    24    1
    24    10    25    1
    25    10    26    1
