@<TRIPOS>MOLECULE
IMPHY003930
 71 75 0 0 0
SMALL
GASTEIGER

@<TRIPOS>ATOM
      1 O           6.9343    0.4050    0.0000 O.3     1  UNL1       -0.3313
      2 O           6.0682   -2.0950    0.0000 O.3     1  UNL1       -0.3461
      3 O           4.3362   -2.0950    0.0000 O.3     1  UNL1       -0.3431
      4 O           7.8003   -2.0950    0.0000 O.3     1  UNL1       -0.3865
      5 O           9.5323   -1.0950    0.0000 O.3     1  UNL1       -0.3864
      6 O           7.8003    1.9050    0.0000 O.3     1  UNL1       -0.4532
      7 O           9.5323    0.9050    0.0000 O.3     1  UNL1       -0.3829
      8 O           6.0682   -4.0950    0.0000 O.3     1  UNL1       -0.3841
      9 O           4.3362   -5.0950    0.0000 O.3     1  UNL1       -0.3864
     10 O           2.6042   -4.0950    0.0000 O.3     1  UNL1       -0.3866
     11 O           6.0682    3.9050    0.0000 O.2     1  UNL1       -0.4507
     12 O           6.0682    0.9050    0.0000 O.2     1  UNL1       -0.2830
     13 O           4.3198    0.8704    0.0000 O.3     1  UNL1       -0.5058
     14 O           2.5381    3.9292    0.0000 O.3     1  UNL1       -0.5065
     15 C           6.9343   -0.5950    0.0000 C.3     1  UNL1        0.1144
     16 C           7.8003   -1.0950    0.0000 C.3     1  UNL1        0.1120
     17 C           8.6663   -0.5950    0.0000 C.3     1  UNL1        0.1152
     18 C           8.6663    0.4050    0.0000 C.3     1  UNL1        0.1454
     19 C           5.2022   -3.5950    0.0000 C.3     1  UNL1        0.1341
     20 C           5.2022   -2.5950    0.0000 C.3     1  UNL1        0.1879
     21 C           4.3362   -4.0950    0.0000 C.3     1  UNL1        0.1140
     22 C           3.4702   -3.5950    0.0000 C.3     1  UNL1        0.1095
     23 C           7.8003    0.9050    0.0000 C.3     1  UNL1        0.2311
     24 C           6.0682   -1.0950    0.0000 C.3     1  UNL1        0.0796
     25 C           3.4702   -2.5950    0.0000 C.3     1  UNL1        0.0873
     26 C           2.6042   -2.0950    0.0000 C.3     1  UNL1       -0.0361
     27 C           6.9343    2.4050    0.0000 C.ar    1  UNL1        0.2138
     28 C           6.9343    3.4050    0.0000 C.ar    1  UNL1        0.1809
     29 C           6.0682    1.9050    0.0000 C.ar    1  UNL1        0.2382
     30 C           5.2022    2.4050    0.0000 C.ar    1  UNL1        0.1092
     31 C           5.2022    3.4050    0.0000 C.ar    1  UNL1        0.1465
     32 C           7.8003    3.9050    0.0000 C.ar    1  UNL1        0.0211
     33 C           4.3083    1.8703    0.0000 C.ar    1  UNL1        0.1348
     34 C           4.3083    3.9397    0.0000 C.ar    1  UNL1        0.0231
     35 C           7.8003    4.9050    0.0000 C.ar    1  UNL1       -0.0510
     36 C           8.6663    3.4050    0.0000 C.ar    1  UNL1       -0.0510
     37 C           3.4022    2.3842    0.0000 C.ar    1  UNL1        0.0223
     38 C           3.4022    3.4258    0.0000 C.ar    1  UNL1        0.1239
     39 C           8.6663    5.4050    0.0000 C.ar    1  UNL1       -0.0611
     40 C           9.5323    3.9050    0.0000 C.ar    1  UNL1       -0.0611
     41 C           9.5323    4.9050    0.0000 C.ar    1  UNL1       -0.0617
     42 H           6.3973   -0.2850    0.0000 H       1  UNL1        0.0647
     43 H           8.3372   -1.4050    0.0000 H       1  UNL1        0.0647
     44 H           9.2033   -0.2850    0.0000 H       1  UNL1        0.0648
     45 H           8.6663    1.0250    0.0000 H       1  UNL1        0.0683
     46 H           5.7392   -3.2850    0.0000 H       1  UNL1        0.0671
     47 H           5.2022   -1.9750    0.0000 H       1  UNL1        0.0937
     48 H           3.7993   -4.4050    0.0000 H       1  UNL1        0.0648
     49 H           2.9332   -3.2850    0.0000 H       1  UNL1        0.0646
     50 H           7.2634    1.2150    0.0000 H       1  UNL1        0.1084
     51 H           5.8562   -0.5124    0.0000 H       1  UNL1        0.0587
     52 H           5.4577   -1.2027    0.0000 H       1  UNL1        0.0587
     53 H           3.4702   -1.9750    0.0000 H       1  UNL1        0.0621
     54 H           2.9141   -1.5581    0.0000 H       1  UNL1        0.0255
     55 H           2.0672   -1.7850    0.0000 H       1  UNL1        0.0255
     56 H           2.2942   -2.6319    0.0000 H       1  UNL1        0.0255
     57 H           7.2634   -2.4050    0.0000 H       1  UNL1        0.2100
     58 H           9.5323   -1.7150    0.0000 H       1  UNL1        0.2100
     59 H          10.0693    0.5950    0.0000 H       1  UNL1        0.2102
     60 H           6.6052   -3.7850    0.0000 H       1  UNL1        0.2101
     61 H           3.7993   -5.4050    0.0000 H       1  UNL1        0.2100
     62 H           2.0672   -3.7850    0.0000 H       1  UNL1        0.2100
     63 H           4.3154    4.5596    0.0000 H       1  UNL1        0.0691
     64 H           7.2634    5.2150    0.0000 H       1  UNL1        0.0625
     65 H           8.6663    2.7850    0.0000 H       1  UNL1        0.0625
     66 H           2.8665    2.0721    0.0000 H       1  UNL1        0.0691
     67 H           8.6663    6.0250    0.0000 H       1  UNL1        0.0618
     68 H          10.0693    3.5950    0.0000 H       1  UNL1        0.0618
     69 H          10.0693    5.2150    0.0000 H       1  UNL1        0.0618
     70 H           3.7865    0.5542    0.0000 H       1  UNL1        0.2922
     71 H           2.0000    3.6212    0.0000 H       1  UNL1        0.2921
@<TRIPOS>BOND
     1     1    15    1
     2     1    23    1
     3    20     2    1
     4     2    24    1
     5     3    20    1
     6     3    25    1
     7    16     4    1
     8     4    57    1
     9     5    17    1
    10     5    58    1
    11    23     6    1
    12     6    27    1
    13     7    18    1
    14     7    59    1
    15     8    19    1
    16     8    60    1
    17    21     9    1
    18     9    61    1
    19    22    10    1
    20    10    62    1
    21    11    28   ar
    22    11    31   ar
    23    12    29    2
    24    13    33    1
    25    13    70    1
    26    14    38    1
    27    14    71    1
    28    15    16    1
    29    15    24    1
    30    15    42    1
    31    16    17    1
    32    16    43    1
    33    17    18    1
    34    17    44    1
    35    18    23    1
    36    18    45    1
    37    19    20    1
    38    19    21    1
    39    19    46    1
    40    20    47    1
    41    21    22    1
    42    21    48    1
    43    22    25    1
    44    22    49    1
    45    23    50    1
    46    24    51    1
    47    24    52    1
    48    25    26    1
    49    25    53    1
    50    26    54    1
    51    26    55    1
    52    26    56    1
    53    27    28   ar
    54    27    29   ar
    55    28    32    1
    56    29    30   ar
    57    30    31   ar
    58    30    33   ar
    59    31    34   ar
    60    32    35   ar
    61    32    36   ar
    62    33    37   ar
    63    34    38   ar
    64    34    63    1
    65    35    39   ar
    66    35    64    1
    67    36    40   ar
    68    36    65    1
    69    37    38   ar
    70    37    66    1
    71    39    41   ar
    72    39    67    1
    73    40    41   ar
    74    40    68    1
    75    41    69    1
