@<TRIPOS>MOLECULE
IMPHY008215
 55 54 0 0 0
SMALL
GASTEIGER

@<TRIPOS>ATOM
      1 O          18.9914   -0.0600    0.0000 O.3     1  UNL1       -0.3950
      2 O           2.5369    0.4400    0.0000 O.3     1  UNL1       -0.4806
      3 O           3.4030   -1.0600    0.0000 O.2     1  UNL1       -0.2510
      4 C          14.6613    0.4400    0.0000 C.3     1  UNL1       -0.0530
      5 C          13.7953   -0.0600    0.0000 C.3     1  UNL1       -0.0528
      6 C          15.5273   -0.0600    0.0000 C.3     1  UNL1       -0.0530
      7 C          12.9292    0.4400    0.0000 C.3     1  UNL1       -0.0496
      8 C           7.7331    0.4400    0.0000 C.3     1  UNL1       -0.0528
      9 C           6.8671   -0.0600    0.0000 C.3     1  UNL1       -0.0530
     10 C           8.5991   -0.0600    0.0000 C.3     1  UNL1       -0.0496
     11 C          16.3933    0.4400    0.0000 C.3     1  UNL1       -0.0510
     12 C           6.0010    0.4400    0.0000 C.3     1  UNL1       -0.0526
     13 C          12.0632   -0.0600    0.0000 C.3     1  UNL1       -0.0348
     14 C           9.4651    0.4400    0.0000 C.3     1  UNL1       -0.0348
     15 C           5.1350   -0.0600    0.0000 C.3     1  UNL1       -0.0430
     16 C          17.2594   -0.0600    0.0000 C.3     1  UNL1       -0.0297
     17 C          11.1972    0.4400    0.0000 C.2     1  UNL1       -0.0879
     18 C          10.3312   -0.0600    0.0000 C.2     1  UNL1       -0.0879
     19 C           4.2690    0.4400    0.0000 C.3     1  UNL1        0.0448
     20 C          18.1254    0.4400    0.0000 C.3     1  UNL1        0.0442
     21 C           3.4030   -0.0600    0.0000 C.2     1  UNL1        0.3047
     22 H          15.0598    0.9149    0.0000 H       1  UNL1        0.0265
     23 H          14.2628    0.9149    0.0000 H       1  UNL1        0.0265
     24 H          13.3967   -0.5349    0.0000 H       1  UNL1        0.0265
     25 H          14.1938   -0.5349    0.0000 H       1  UNL1        0.0265
     26 H          15.1288   -0.5349    0.0000 H       1  UNL1        0.0265
     27 H          15.9258   -0.5349    0.0000 H       1  UNL1        0.0265
     28 H          13.3278    0.9149    0.0000 H       1  UNL1        0.0268
     29 H          12.5307    0.9149    0.0000 H       1  UNL1        0.0268
     30 H           8.1316    0.9149    0.0000 H       1  UNL1        0.0265
     31 H           7.3346    0.9149    0.0000 H       1  UNL1        0.0265
     32 H           6.4685   -0.5349    0.0000 H       1  UNL1        0.0265
     33 H           7.2656   -0.5349    0.0000 H       1  UNL1        0.0265
     34 H           8.2006   -0.5349    0.0000 H       1  UNL1        0.0268
     35 H           8.9976   -0.5349    0.0000 H       1  UNL1        0.0268
     36 H          16.7919    0.9149    0.0000 H       1  UNL1        0.0266
     37 H          15.9948    0.9149    0.0000 H       1  UNL1        0.0266
     38 H           6.3996    0.9149    0.0000 H       1  UNL1        0.0265
     39 H           5.6025    0.9149    0.0000 H       1  UNL1        0.0265
     40 H          11.6647   -0.5349    0.0000 H       1  UNL1        0.0307
     41 H          12.4617   -0.5349    0.0000 H       1  UNL1        0.0307
     42 H           9.8637    0.9149    0.0000 H       1  UNL1        0.0307
     43 H           9.0666    0.9149    0.0000 H       1  UNL1        0.0307
     44 H           4.7365   -0.5349    0.0000 H       1  UNL1        0.0270
     45 H           5.5335   -0.5349    0.0000 H       1  UNL1        0.0270
     46 H          16.8608   -0.5349    0.0000 H       1  UNL1        0.0287
     47 H          17.6579   -0.5349    0.0000 H       1  UNL1        0.0287
     48 H          11.1972    1.0600    0.0000 H       1  UNL1        0.0569
     49 H          10.3312   -0.6800    0.0000 H       1  UNL1        0.0569
     50 H           4.6675    0.9149    0.0000 H       1  UNL1        0.0377
     51 H           3.8705    0.9149    0.0000 H       1  UNL1        0.0377
     52 H          18.5239    0.9149    0.0000 H       1  UNL1        0.0557
     53 H          17.7269    0.9149    0.0000 H       1  UNL1        0.0557
     54 H          19.5284    0.2500    0.0000 H       1  UNL1        0.2094
     55 H           2.0000    0.1300    0.0000 H       1  UNL1        0.2951
@<TRIPOS>BOND
     1     1    20    1
     2     1    54    1
     3     2    21    1
     4     2    55    1
     5     3    21    2
     6     4     5    1
     7     4     6    1
     8     4    22    1
     9     4    23    1
    10     5     7    1
    11     5    24    1
    12     5    25    1
    13     6    11    1
    14     6    26    1
    15     6    27    1
    16     7    13    1
    17     7    28    1
    18     7    29    1
    19     8     9    1
    20     8    10    1
    21     8    30    1
    22     8    31    1
    23     9    12    1
    24     9    32    1
    25     9    33    1
    26    10    14    1
    27    10    34    1
    28    10    35    1
    29    11    16    1
    30    11    36    1
    31    11    37    1
    32    12    15    1
    33    12    38    1
    34    12    39    1
    35    13    17    1
    36    13    40    1
    37    13    41    1
    38    14    18    1
    39    14    42    1
    40    14    43    1
    41    15    19    1
    42    15    44    1
    43    15    45    1
    44    16    20    1
    45    16    46    1
    46    16    47    1
    47    17    18    2
    48    17    48    1
    49    18    49    1
    50    19    21    1
    51    19    50    1
    52    19    51    1
    53    20    52    1
    54    20    53    1
