@<TRIPOS>MOLECULE
IMPHY002446
 134 142 0 0 0
SMALL
GASTEIGER

@<TRIPOS>ATOM
      1 O          12.6203    5.5403    0.0000 O.3     1  UNL1       -0.3448
      2 O          10.8478    6.4351    0.0000 O.3     1  UNL1       -0.3480
      3 O          11.1972   -2.7038    0.0000 O.3     1  UNL1       -0.3451
      4 O           9.4651   -2.7038    0.0000 O.3     1  UNL1       -0.3405
      5 O          11.1972   -4.7038    0.0000 O.3     1  UNL1       -0.3841
      6 O           9.4651   -5.7038    0.0000 O.3     1  UNL1       -0.3864
      7 O           7.7331   -4.7038    0.0000 O.3     1  UNL1       -0.3401
      8 O           7.7331   -1.7038    0.0000 O.3     1  UNL1       -0.3924
      9 O           6.8671   -3.2038    0.0000 O.3     1  UNL1       -0.3405
     10 O           6.0010   -5.7038    0.0000 O.3     1  UNL1       -0.3378
     11 O           4.2690   -4.7038    0.0000 O.3     1  UNL1       -0.3864
     12 O           4.2690   -2.7038    0.0000 O.3     1  UNL1       -0.3865
     13 O           4.2690   -5.7038    0.0000 O.3     1  UNL1       -0.3431
     14 O           5.1350   -1.2038    0.0000 O.3     1  UNL1       -0.3924
     15 O           6.0010   -7.7038    0.0000 O.3     1  UNL1       -0.3841
     16 O           4.2690   -8.7038    0.0000 O.3     1  UNL1       -0.3864
     17 O           2.5369   -7.7038    0.0000 O.3     1  UNL1       -0.3866
     18 C          11.2264    3.4931    0.0000 C.3     1  UNL1       -0.0233
     19 C          12.0944    2.9965    0.0000 C.3     1  UNL1       -0.0295
     20 C          11.4319    4.4657    0.0000 C.3     1  UNL1       -0.0015
     21 C          12.0983    1.9965    0.0000 C.3     1  UNL1       -0.0306
     22 C          12.4202    4.5726    0.0000 C.3     1  UNL1        0.0660
     23 C          11.2342    1.4931    0.0000 C.3     1  UNL1       -0.0285
     24 C          12.8288    3.6664    0.0000 C.3     1  UNL1       -0.0226
     25 C          10.3624    2.9898    0.0000 C.3     1  UNL1       -0.0467
     26 C          11.0296    5.3683    0.0000 C.3     1  UNL1        0.0160
     27 C          10.3662    1.9898    0.0000 C.3     1  UNL1       -0.0486
     28 C          11.2221    0.4516    0.0000 C.3     1  UNL1       -0.0078
     29 C          11.7626    6.0311    0.0000 C.3     1  UNL1        0.1732
     30 C          10.3585    3.9898    0.0000 C.3     1  UNL1       -0.0590
     31 C          13.0102    1.4931    0.0000 C.3     1  UNL1       -0.0311
     32 C          12.1222   -0.0727    0.0000 C.2     1  UNL1       -0.0648
     33 C          10.2722   -0.0727    0.0000 C.3     1  UNL1       -0.0413
     34 C          10.0512    5.5750    0.0000 C.3     1  UNL1       -0.0572
     35 C          12.5698    6.6213    0.0000 C.3     1  UNL1        0.0020
     36 C          13.0222    0.4516    0.0000 C.2     1  UNL1       -0.0839
     37 C          10.3580    0.9549    0.0000 C.3     1  UNL1       -0.0556
     38 C          12.1347   -1.1576    0.0000 C.3     1  UNL1       -0.0047
     39 C          10.2597   -1.1576    0.0000 C.3     1  UNL1       -0.0254
     40 C          11.1972   -1.7038    0.0000 C.3     1  UNL1        0.0655
     41 C          12.4623    7.6155    0.0000 C.3     1  UNL1       -0.0435
     42 C          11.5476    8.0195    0.0000 C.3     1  UNL1       -0.0201
     43 C          10.7403    7.4293    0.0000 C.3     1  UNL1        0.0535
     44 C          11.4401    9.0138    0.0000 C.3     1  UNL1       -0.0603
     45 C          10.3312   -3.2038    0.0000 C.3     1  UNL1        0.1882
     46 C          10.3312   -4.2038    0.0000 C.3     1  UNL1        0.1341
     47 C           9.4651   -4.7038    0.0000 C.3     1  UNL1        0.1144
     48 C           8.5991   -3.2038    0.0000 C.3     1  UNL1        0.1134
     49 C           8.5991   -4.2038    0.0000 C.3     1  UNL1        0.1184
     50 C           7.7331   -2.7038    0.0000 C.3     1  UNL1        0.0730
     51 C           6.8671   -4.2038    0.0000 C.3     1  UNL1        0.1888
     52 C           6.0010   -4.7038    0.0000 C.3     1  UNL1        0.1406
     53 C           5.1350   -4.2038    0.0000 C.3     1  UNL1        0.1144
     54 C           6.0010   -2.7038    0.0000 C.3     1  UNL1        0.1130
     55 C           5.1350   -3.2038    0.0000 C.3     1  UNL1        0.1119
     56 C           6.0010   -1.7038    0.0000 C.3     1  UNL1        0.0730
     57 C           5.1350   -6.2038    0.0000 C.3     1  UNL1        0.1884
     58 C           5.1350   -7.2038    0.0000 C.3     1  UNL1        0.1341
     59 C           4.2690   -7.7038    0.0000 C.3     1  UNL1        0.1140
     60 C           3.4030   -6.2038    0.0000 C.3     1  UNL1        0.0873
     61 C           3.4030   -7.2038    0.0000 C.3     1  UNL1        0.1095
     62 C           2.5369   -5.7038    0.0000 C.3     1  UNL1       -0.0361
     63 H          12.8727    2.6548    0.0000 H       1  UNL1        0.0310
     64 H          10.5866    4.3762    0.0000 H       1  UNL1        0.0335
     65 H          12.8294    2.4300    0.0000 H       1  UNL1        0.0310
     66 H          13.2651    4.6658    0.0000 H       1  UNL1        0.0600
     67 H          11.9686    1.0653    0.0000 H       1  UNL1        0.0312
     68 H          13.1962    3.1670    0.0000 H       1  UNL1        0.0293
     69 H          13.3641    3.9792    0.0000 H       1  UNL1        0.0293
     70 H          10.1481    3.5716    0.0000 H       1  UNL1        0.0271
     71 H           9.7522    2.8798    0.0000 H       1  UNL1        0.0271
     72 H          10.6398    4.8862    0.0000 H       1  UNL1        0.0354
     73 H           9.7552    2.0951    0.0000 H       1  UNL1        0.0268
     74 H          10.1564    1.4064    0.0000 H       1  UNL1        0.0268
     75 H          10.6664    4.5279    0.0000 H       1  UNL1        0.0235
     76 H           9.8204    4.2977    0.0000 H       1  UNL1        0.0235
     77 H          10.0506    3.4517    0.0000 H       1  UNL1        0.0235
     78 H          13.6222    1.3941    0.0000 H       1  UNL1        0.0310
     79 H          13.2125    2.0792    0.0000 H       1  UNL1        0.0310
     80 H          10.0699    0.5134    0.0000 H       1  UNL1        0.0274
     81 H           9.6602   -0.1717    0.0000 H       1  UNL1        0.0274
     82 H          10.1793    6.1816    0.0000 H       1  UNL1        0.0234
     83 H           9.4446    5.7032    0.0000 H       1  UNL1        0.0234
     84 H           9.9231    4.9684    0.0000 H       1  UNL1        0.0234
     85 H          12.8433    6.0649    0.0000 H       1  UNL1        0.0317
     86 H          13.1653    6.7940    0.0000 H       1  UNL1        0.0317
     87 H          13.5616    0.1457    0.0000 H       1  UNL1        0.0572
     88 H          10.6701    1.4906    0.0000 H       1  UNL1        0.0238
     89 H           9.8223    1.2670    0.0000 H       1  UNL1        0.0238
     90 H          10.0460    0.4192    0.0000 H       1  UNL1        0.0238
     91 H          12.3505   -1.7389    0.0000 H       1  UNL1        0.0335
     92 H          12.7443   -1.0445    0.0000 H       1  UNL1        0.0335
     93 H           9.6501   -1.0445    0.0000 H       1  UNL1        0.0290
     94 H          10.0439   -1.7389    0.0000 H       1  UNL1        0.0290
     95 H          11.7347   -2.0127    0.0000 H       1  UNL1        0.0600
     96 H          13.0810    7.5741    0.0000 H       1  UNL1        0.0270
     97 H          12.6105    8.2176    0.0000 H       1  UNL1        0.0270
     98 H          12.0481    8.3855    0.0000 H       1  UNL1        0.0320
     99 H          10.4669    7.9858    0.0000 H       1  UNL1        0.0563
    100 H          10.1449    7.2567    0.0000 H       1  UNL1        0.0563
    101 H          12.0565    9.0804    0.0000 H       1  UNL1        0.0233
    102 H          11.3734    9.6302    0.0000 H       1  UNL1        0.0233
    103 H          10.8237    8.9471    0.0000 H       1  UNL1        0.0233
    104 H          10.3312   -2.5838    0.0000 H       1  UNL1        0.0937
    105 H          10.3312   -4.8238    0.0000 H       1  UNL1        0.0671
    106 H           8.9282   -5.0138    0.0000 H       1  UNL1        0.0648
    107 H           8.5991   -2.5838    0.0000 H       1  UNL1        0.0647
    108 H           8.0622   -3.8938    0.0000 H       1  UNL1        0.0651
    109 H          11.7341   -4.3938    0.0000 H       1  UNL1        0.2101
    110 H           7.1225   -2.5961    0.0000 H       1  UNL1        0.0584
    111 H           7.5210   -3.2864    0.0000 H       1  UNL1        0.0584
    112 H          10.0021   -6.0138    0.0000 H       1  UNL1        0.2100
    113 H           6.8671   -4.8238    0.0000 H       1  UNL1        0.0938
    114 H           7.1962   -1.3938    0.0000 H       1  UNL1        0.2095
    115 H           5.4641   -5.0138    0.0000 H       1  UNL1        0.0675
    116 H           4.5981   -3.8938    0.0000 H       1  UNL1        0.0648
    117 H           6.5380   -2.3938    0.0000 H       1  UNL1        0.0647
    118 H           5.1350   -2.5838    0.0000 H       1  UNL1        0.0647
    119 H           5.6720   -6.5138    0.0000 H       1  UNL1        0.0938
    120 H           6.6116   -1.8114    0.0000 H       1  UNL1        0.0584
    121 H           6.2131   -1.1211    0.0000 H       1  UNL1        0.0584
    122 H           3.7320   -4.3938    0.0000 H       1  UNL1        0.2100
    123 H           5.1350   -7.8238    0.0000 H       1  UNL1        0.0671
    124 H           3.7320   -3.0138    0.0000 H       1  UNL1        0.2100
    125 H           3.7320   -8.0138    0.0000 H       1  UNL1        0.0648
    126 H           3.4030   -5.5838    0.0000 H       1  UNL1        0.0621
    127 H           2.8660   -6.8938    0.0000 H       1  UNL1        0.0646
    128 H           5.1350   -0.5837    0.0000 H       1  UNL1        0.2095
    129 H           6.0010   -8.3238    0.0000 H       1  UNL1        0.2101
    130 H           2.8469   -5.1668    0.0000 H       1  UNL1        0.0255
    131 H           2.0000   -5.3938    0.0000 H       1  UNL1        0.0255
    132 H           2.2269   -6.2407    0.0000 H       1  UNL1        0.0255
    133 H           3.7320   -9.0138    0.0000 H       1  UNL1        0.2100
    134 H           2.0000   -7.3938    0.0000 H       1  UNL1        0.2100
@<TRIPOS>BOND
     1     1    22    1
     2    29     1    1
     3     2    29    1
     4     2    43    1
     5    40     3    1
     6    45     3    1
     7     4    45    1
     8     4    48    1
     9    46     5    1
    10     5   109    1
    11    47     6    1
    12     6   112    1
    13    49     7    1
    14    51     7    1
    15     8    50    1
    16     8   114    1
    17     9    51    1
    18     9    54    1
    19    52    10    1
    20    57    10    1
    21    53    11    1
    22    11   122    1
    23    55    12    1
    24    12   124    1
    25    13    57    1
    26    13    60    1
    27    14    56    1
    28    14   128    1
    29    58    15    1
    30    15   129    1
    31    59    16    1
    32    16   133    1
    33    61    17    1
    34    17   134    1
    35    18    19    1
    36    18    20    1
    37    18    25    1
    38    18    30    1
    39    19    21    1
    40    19    24    1
    41    19    63    1
    42    20    22    1
    43    20    26    1
    44    20    64    1
    45    21    23    1
    46    21    31    1
    47    21    65    1
    48    22    24    1
    49    22    66    1
    50    23    27    1
    51    23    28    1
    52    23    67    1
    53    24    68    1
    54    24    69    1
    55    25    27    1
    56    25    70    1
    57    25    71    1
    58    26    29    1
    59    26    34    1
    60    26    72    1
    61    27    73    1
    62    27    74    1
    63    28    32    1
    64    28    33    1
    65    28    37    1
    66    29    35    1
    67    30    75    1
    68    30    76    1
    69    30    77    1
    70    31    36    1
    71    31    78    1
    72    31    79    1
    73    32    36    2
    74    32    38    1
    75    33    39    1
    76    33    80    1
    77    33    81    1
    78    34    82    1
    79    34    83    1
    80    34    84    1
    81    35    41    1
    82    35    85    1
    83    35    86    1
    84    36    87    1
    85    37    88    1
    86    37    89    1
    87    37    90    1
    88    38    40    1
    89    38    91    1
    90    38    92    1
    91    39    40    1
    92    39    93    1
    93    39    94    1
    94    40    95    1
    95    41    42    1
    96    41    96    1
    97    41    97    1
    98    42    43    1
    99    42    44    1
   100    42    98    1
   101    43    99    1
   102    43   100    1
   103    44   101    1
   104    44   102    1
   105    44   103    1
   106    45    46    1
   107    45   104    1
   108    46    47    1
   109    46   105    1
   110    47    49    1
   111    47   106    1
   112    48    49    1
   113    48    50    1
   114    48   107    1
   115    49   108    1
   116    50   110    1
   117    50   111    1
   118    51    52    1
   119    51   113    1
   120    52    53    1
   121    52   115    1
   122    53    55    1
   123    53   116    1
   124    54    55    1
   125    54    56    1
   126    54   117    1
   127    55   118    1
   128    56   120    1
   129    56   121    1
   130    57    58    1
   131    57   119    1
   132    58    59    1
   133    58   123    1
   134    59    61    1
   135    59   125    1
   136    60    61    1
   137    60    62    1
   138    60   126    1
   139    61   127    1
   140    62   130    1
   141    62   131    1
   142    62   132    1
