@<TRIPOS>MOLECULE
IMPHY002623
 54 56 0 0 0
SMALL
GASTEIGER

@<TRIPOS>ATOM
      1 O           2.5381   -2.0095    0.0000 O.3     1  UNL1       -0.3912
      2 O           6.9464    2.5839    0.0000 O.3     1  UNL1       -0.3906
      3 C           5.2022   -0.4854    0.0000 C.3     1  UNL1       -0.0220
      4 C           5.2022   -1.4854    0.0000 C.3     1  UNL1       -0.0273
      5 C           6.0682    0.0146    0.0000 C.3     1  UNL1       -0.0118
      6 C           4.3083   -2.0200    0.0000 C.3     1  UNL1       -0.0056
      7 C           4.3083    0.0493    0.0000 C.3     1  UNL1       -0.0445
      8 C           6.0682   -1.9854    0.0000 C.3     1  UNL1       -0.0454
      9 C           3.4022   -1.5062    0.0000 C.3     1  UNL1        0.0606
     10 C           6.9343   -0.4854    0.0000 C.2     1  UNL1       -0.0689
     11 C           3.4022   -0.4646    0.0000 C.3     1  UNL1       -0.0258
     12 C           6.0522    1.0561    0.0000 C.3     1  UNL1       -0.0187
     13 C           6.9343   -1.4854    0.0000 C.3     1  UNL1       -0.0311
     14 C           5.2022    0.5146    0.0000 C.3     1  UNL1       -0.0587
     15 C           6.9502    1.5839    0.0000 C.3     1  UNL1        0.0680
     16 C           3.8183   -2.8918    0.0000 C.3     1  UNL1       -0.0572
     17 C           4.8183   -2.8802    0.0000 C.3     1  UNL1       -0.0572
     18 C           7.8523    1.0631    0.0000 C.3     1  UNL1        0.0299
     19 C           7.8443    0.0215    0.0000 C.2     1  UNL1       -0.0725
     20 C           8.8523    1.0592    0.0000 C.3     1  UNL1       -0.0502
     21 C           8.3556    1.9272    0.0000 C.2     1  UNL1       -0.0791
     22 C           9.3556    1.9233    0.0000 C.2     1  UNL1       -0.1017
     23 H           5.2070   -2.1054    0.0000 H       1  UNL1        0.0312
     24 H           6.6028    0.3287    0.0000 H       1  UNL1        0.0352
     25 H           4.7129    0.5191    0.0000 H       1  UNL1        0.0272
     26 H           3.9147    0.5283    0.0000 H       1  UNL1        0.0272
     27 H           5.6697   -2.4603    0.0000 H       1  UNL1        0.0271
     28 H           6.4668   -2.4603    0.0000 H       1  UNL1        0.0271
     29 H           2.8647   -1.1972    0.0000 H       1  UNL1        0.0599
     30 H           3.1932    0.1191    0.0000 H       1  UNL1        0.0290
     31 H           2.7914   -0.5707    0.0000 H       1  UNL1        0.0290
     32 H           5.8342    1.6365    0.0000 H       1  UNL1        0.0296
     33 H           5.4431    0.9406    0.0000 H       1  UNL1        0.0296
     34 H           7.1463   -2.0680    0.0000 H       1  UNL1        0.0310
     35 H           7.5449   -1.3777    0.0000 H       1  UNL1        0.0310
     36 H           5.8222    0.5146    0.0000 H       1  UNL1        0.0235
     37 H           5.2022    1.1346    0.0000 H       1  UNL1        0.0235
     38 H           4.5822    0.5146    0.0000 H       1  UNL1        0.0235
     39 H           6.4115    1.8908    0.0000 H       1  UNL1        0.0605
     40 H           4.2850   -3.1964    0.0000 H       1  UNL1        0.0236
     41 H           5.1344   -3.4136    0.0000 H       1  UNL1        0.0236
     42 H           5.3516   -2.5640    0.0000 H       1  UNL1        0.0236
     43 H           3.2778   -2.5880    0.0000 H       1  UNL1        0.0236
     44 H           3.5146   -3.4323    0.0000 H       1  UNL1        0.0236
     45 H           4.3588   -3.1956    0.0000 H       1  UNL1        0.0236
     46 H           8.3776   -0.2947    0.0000 H       1  UNL1        0.0581
     47 H           2.0000   -1.7016    0.0000 H       1  UNL1        0.2098
     48 H           8.8499    0.4392    0.0000 H       1  UNL1        0.0242
     49 H           9.4723    1.0568    0.0000 H       1  UNL1        0.0242
     50 H           8.8547    1.6792    0.0000 H       1  UNL1        0.0242
     51 H           8.0477    2.4653    0.0000 H       1  UNL1        0.0576
     52 H           6.4082    2.8918    0.0000 H       1  UNL1        0.2098
     53 H           9.6636    1.3852    0.0000 H       1  UNL1        0.0532
     54 H           9.6677    2.4590    0.0000 H       1  UNL1        0.0532
@<TRIPOS>BOND
     1     1     9    1
     2     1    47    1
     3     2    15    1
     4     2    52    1
     5     3     4    1
     6     3     5    1
     7     3     7    1
     8     3    14    1
     9     4     6    1
    10     4     8    1
    11     4    23    1
    12     5    10    1
    13     5    12    1
    14     5    24    1
    15     6     9    1
    16     6    16    1
    17     6    17    1
    18     7    11    1
    19     7    25    1
    20     7    26    1
    21     8    13    1
    22     8    27    1
    23     8    28    1
    24     9    11    1
    25     9    29    1
    26    10    13    1
    27    10    19    2
    28    11    30    1
    29    11    31    1
    30    12    15    1
    31    12    32    1
    32    12    33    1
    33    13    34    1
    34    13    35    1
    35    14    36    1
    36    14    37    1
    37    14    38    1
    38    15    18    1
    39    15    39    1
    40    16    43    1
    41    16    44    1
    42    16    45    1
    43    17    40    1
    44    17    41    1
    45    17    42    1
    46    18    19    1
    47    18    20    1
    48    18    21    1
    49    19    46    1
    50    20    48    1
    51    20    49    1
    52    20    50    1
    53    21    22    2
    54    21    51    1
    55    22    53    1
    56    22    54    1
