@<TRIPOS>MOLECULE
IMPHY014328
 80 80 0 0 0
SMALL
GASTEIGER

@<TRIPOS>ATOM
      1 O           4.5981   -4.3450    0.0000 O.3     1  UNL1       -0.4616
      2 O           2.8660   -4.3450    0.0000 O.2     1  UNL1       -0.2456
      3 O           2.8660  -10.3450    0.0000 O.3     1  UNL1       -0.5068
      4 C           8.9282    3.1550    0.0000 C.3     1  UNL1       -0.0531
      5 C           8.9282    4.1550    0.0000 C.3     1  UNL1       -0.0531
      6 C           8.0622    2.6550    0.0000 C.3     1  UNL1       -0.0531
      7 C           9.7942    4.6550    0.0000 C.3     1  UNL1       -0.0531
      8 C           8.0622    1.6550    0.0000 C.3     1  UNL1       -0.0531
      9 C           9.7942    5.6550    0.0000 C.3     1  UNL1       -0.0531
     10 C           7.1962    1.1550    0.0000 C.3     1  UNL1       -0.0531
     11 C          10.6603    6.1550    0.0000 C.3     1  UNL1       -0.0531
     12 C           7.1962    0.1550    0.0000 C.3     1  UNL1       -0.0531
     13 C          10.6603    7.1550    0.0000 C.3     1  UNL1       -0.0531
     14 C           6.3301   -0.3450    0.0000 C.3     1  UNL1       -0.0531
     15 C          11.5263    7.6550    0.0000 C.3     1  UNL1       -0.0531
     16 C           6.3301   -1.3450    0.0000 C.3     1  UNL1       -0.0530
     17 C          11.5263    8.6550    0.0000 C.3     1  UNL1       -0.0531
     18 C           5.4641   -1.8450    0.0000 C.3     1  UNL1       -0.0500
     19 C          12.3923    9.1550    0.0000 C.3     1  UNL1       -0.0533
     20 C           5.4641   -2.8450    0.0000 C.3     1  UNL1       -0.0185
     21 C          12.3923   10.1550    0.0000 C.3     1  UNL1       -0.0559
     22 C           4.5981   -3.3450    0.0000 C.3     1  UNL1        0.0928
     23 C          13.2583   10.6550    0.0000 C.3     1  UNL1       -0.0653
     24 C           3.7320   -4.8450    0.0000 C.2     1  UNL1        0.3319
     25 C           3.7320   -5.8450    0.0000 C.2     1  UNL1        0.0231
     26 C           2.8660   -6.3450    0.0000 C.2     1  UNL1       -0.0478
     27 C           2.8660   -7.3450    0.0000 C.ar    1  UNL1       -0.0246
     28 C           3.7320   -7.8450    0.0000 C.ar    1  UNL1       -0.0511
     29 C           2.0000   -7.8450    0.0000 C.ar    1  UNL1       -0.0511
     30 C           3.7320   -8.8450    0.0000 C.ar    1  UNL1       -0.0196
     31 C           2.0000   -8.8450    0.0000 C.ar    1  UNL1       -0.0196
     32 C           2.8660   -9.3450    0.0000 C.ar    1  UNL1        0.1169
     33 H           9.1403    2.5724    0.0000 H       1  UNL1        0.0265
     34 H           9.5388    3.2627    0.0000 H       1  UNL1        0.0265
     35 H           8.7162    4.7376    0.0000 H       1  UNL1        0.0265
     36 H           8.3176    4.0473    0.0000 H       1  UNL1        0.0265
     37 H           7.8501    3.2376    0.0000 H       1  UNL1        0.0265
     38 H           7.4516    2.5473    0.0000 H       1  UNL1        0.0265
     39 H          10.0063    4.0724    0.0000 H       1  UNL1        0.0265
     40 H          10.4048    4.7627    0.0000 H       1  UNL1        0.0265
     41 H           8.2742    1.0724    0.0000 H       1  UNL1        0.0265
     42 H           8.6728    1.7627    0.0000 H       1  UNL1        0.0265
     43 H           9.5822    6.2376    0.0000 H       1  UNL1        0.0265
     44 H           9.1836    5.5473    0.0000 H       1  UNL1        0.0265
     45 H           6.9841    1.7376    0.0000 H       1  UNL1        0.0265
     46 H           6.5856    1.0473    0.0000 H       1  UNL1        0.0265
     47 H          10.8723    5.5724    0.0000 H       1  UNL1        0.0265
     48 H          11.2708    6.2627    0.0000 H       1  UNL1        0.0265
     49 H           7.4082   -0.4276    0.0000 H       1  UNL1        0.0265
     50 H           7.8067    0.2627    0.0000 H       1  UNL1        0.0265
     51 H          10.4482    7.7376    0.0000 H       1  UNL1        0.0265
     52 H          10.0497    7.0473    0.0000 H       1  UNL1        0.0265
     53 H           6.1181    0.2376    0.0000 H       1  UNL1        0.0265
     54 H           5.7196   -0.4527    0.0000 H       1  UNL1        0.0265
     55 H          11.7383    7.0724    0.0000 H       1  UNL1        0.0265
     56 H          12.1369    7.7627    0.0000 H       1  UNL1        0.0265
     57 H           6.5422   -1.9276    0.0000 H       1  UNL1        0.0265
     58 H           6.9407   -1.2373    0.0000 H       1  UNL1        0.0265
     59 H          11.3142    9.2376    0.0000 H       1  UNL1        0.0265
     60 H          10.9157    8.5473    0.0000 H       1  UNL1        0.0265
     61 H           5.2520   -1.2624    0.0000 H       1  UNL1        0.0266
     62 H           4.8535   -1.9527    0.0000 H       1  UNL1        0.0266
     63 H          12.6044    8.5724    0.0000 H       1  UNL1        0.0265
     64 H          13.0029    9.2627    0.0000 H       1  UNL1        0.0265
     65 H           5.6762   -3.4276    0.0000 H       1  UNL1        0.0298
     66 H           6.0747   -2.7373    0.0000 H       1  UNL1        0.0298
     67 H          12.1803   10.7376    0.0000 H       1  UNL1        0.0263
     68 H          11.7817   10.0473    0.0000 H       1  UNL1        0.0263
     69 H           4.3860   -2.7624    0.0000 H       1  UNL1        0.0697
     70 H           3.9875   -3.4527    0.0000 H       1  UNL1        0.0697
     71 H          13.5683   10.1181    0.0000 H       1  UNL1        0.0230
     72 H          13.7953   10.9650    0.0000 H       1  UNL1        0.0230
     73 H          12.9483   11.1919    0.0000 H       1  UNL1        0.0230
     74 H           4.2690   -6.1550    0.0000 H       1  UNL1        0.0689
     75 H           2.3291   -6.0350    0.0000 H       1  UNL1        0.0626
     76 H           4.2690   -7.5350    0.0000 H       1  UNL1        0.0625
     77 H           1.4631   -7.5350    0.0000 H       1  UNL1        0.0625
     78 H           4.2690   -9.1550    0.0000 H       1  UNL1        0.0654
     79 H           1.4631   -9.1550    0.0000 H       1  UNL1        0.0654
     80 H           2.3291  -10.6550    0.0000 H       1  UNL1        0.2921
@<TRIPOS>BOND
     1     1    22    1
     2     1    24    1
     3     2    24    2
     4     3    32    1
     5     3    80    1
     6     4     5    1
     7     4     6    1
     8     4    33    1
     9     4    34    1
    10     5     7    1
    11     5    35    1
    12     5    36    1
    13     6     8    1
    14     6    37    1
    15     6    38    1
    16     7     9    1
    17     7    39    1
    18     7    40    1
    19     8    10    1
    20     8    41    1
    21     8    42    1
    22     9    11    1
    23     9    43    1
    24     9    44    1
    25    10    12    1
    26    10    45    1
    27    10    46    1
    28    11    13    1
    29    11    47    1
    30    11    48    1
    31    12    14    1
    32    12    49    1
    33    12    50    1
    34    13    15    1
    35    13    51    1
    36    13    52    1
    37    14    16    1
    38    14    53    1
    39    14    54    1
    40    15    17    1
    41    15    55    1
    42    15    56    1
    43    16    18    1
    44    16    57    1
    45    16    58    1
    46    17    19    1
    47    17    59    1
    48    17    60    1
    49    18    20    1
    50    18    61    1
    51    18    62    1
    52    19    21    1
    53    19    63    1
    54    19    64    1
    55    20    22    1
    56    20    65    1
    57    20    66    1
    58    21    23    1
    59    21    67    1
    60    21    68    1
    61    22    69    1
    62    22    70    1
    63    23    71    1
    64    23    72    1
    65    23    73    1
    66    24    25    1
    67    25    26    2
    68    25    74    1
    69    26    27    1
    70    26    75    1
    71    27    28   ar
    72    27    29   ar
    73    28    30   ar
    74    28    76    1
    75    29    31   ar
    76    29    77    1
    77    30    32   ar
    78    30    78    1
    79    31    32   ar
    80    31    79    1
