@<TRIPOS>MOLECULE
IMPHY014207
 25 24 0 0 0
SMALL
GASTEIGER

@<TRIPOS>ATOM
      1 O           2.0000    0.4400    0.0000 O.2     1  UNL1       -0.2963
      2 C           8.0622   -0.0600    0.0000 C.2     1  UNL1       -0.0757
      3 C           7.1962    0.4400    0.0000 C.2     1  UNL1       -0.0630
      4 C           4.5981   -0.0600    0.0000 C.2     1  UNL1       -0.0474
      5 C           6.3301   -0.0600    0.0000 C.2     1  UNL1       -0.0616
      6 C           5.4641    0.4400    0.0000 C.2     1  UNL1       -0.0587
      7 C           8.9282    0.4400    0.0000 C.3     1  UNL1       -0.0438
      8 C           8.0622   -1.0600    0.0000 C.3     1  UNL1       -0.0438
      9 C           4.5981   -1.0600    0.0000 C.3     1  UNL1       -0.0396
     10 C           3.7320    0.4400    0.0000 C.2     1  UNL1       -0.0195
     11 C           2.8660   -0.0600    0.0000 C.2     1  UNL1        0.1433
     12 H           7.1962    1.0600    0.0000 H       1  UNL1        0.0617
     13 H           6.3301   -0.6800    0.0000 H       1  UNL1        0.0618
     14 H           5.4641    1.0600    0.0000 H       1  UNL1        0.0620
     15 H           9.2382   -0.0969    0.0000 H       1  UNL1        0.0274
     16 H           9.4651    0.7500    0.0000 H       1  UNL1        0.0274
     17 H           8.6182    0.9769    0.0000 H       1  UNL1        0.0274
     18 H           7.4422   -1.0600    0.0000 H       1  UNL1        0.0274
     19 H           8.0622   -1.6800    0.0000 H       1  UNL1        0.0274
     20 H           8.6822   -1.0600    0.0000 H       1  UNL1        0.0274
     21 H           3.9781   -1.0600    0.0000 H       1  UNL1        0.0278
     22 H           4.5981   -1.6800    0.0000 H       1  UNL1        0.0278
     23 H           5.2181   -1.0600    0.0000 H       1  UNL1        0.0278
     24 H           3.7320    1.0600    0.0000 H       1  UNL1        0.0652
     25 H           2.8660   -0.6800    0.0000 H       1  UNL1        0.1075
@<TRIPOS>BOND
     1     1    11    2
     2     2     3    2
     3     2     7    1
     4     2     8    1
     5     3     5    1
     6     3    12    1
     7     4     6    1
     8     4     9    1
     9     4    10    2
    10     5     6    2
    11     5    13    1
    12     6    14    1
    13     7    15    1
    14     7    16    1
    15     7    17    1
    16     8    18    1
    17     8    19    1
    18     8    20    1
    19     9    21    1
    20     9    22    1
    21     9    23    1
    22    10    11    1
    23    10    24    1
    24    11    25    1
