@<TRIPOS>MOLECULE
IMPHY004196
 59 63 0 0 0
SMALL
GASTEIGER

@<TRIPOS>ATOM
      1 O           4.8884   -1.1203    0.0000 O.3     1  UNL1       -0.3332
      2 O           5.3025   -0.7609    0.0000 O.3     1  UNL1       -0.3818
      3 O           4.3766    2.0927    0.0000 O.3     1  UNL1       -0.3849
      4 O           2.5664    0.7780    0.0000 O.3     1  UNL1       -0.3849
      5 O           6.1562   -1.7574    0.0000 O.3     1  UNL1       -0.3638
      6 O           7.2450    0.8294    0.0000 O.3     1  UNL1       -0.3874
      7 O           4.9073   -2.0135    0.0000 O.3     1  UNL1       -0.3885
      8 C           4.9934    0.1902    0.0000 C.3     1  UNL1        0.1420
      9 C           5.9875    0.1928    0.0000 C.3     1  UNL1        0.0849
     10 C           4.1844   -0.3976    0.0000 C.3     1  UNL1        0.1595
     11 C           4.6844    1.1412    0.0000 C.3     1  UNL1        0.1091
     12 C           3.6844    1.1412    0.0000 C.3     1  UNL1        0.0361
     13 C           3.3754    0.1902    0.0000 C.3     1  UNL1        0.1085
     14 C           5.8473   -0.8064    0.0000 C.3     1  UNL1        0.1798
     15 C           6.2939    1.1384    0.0000 C.3     1  UNL1        0.0842
     16 C           5.3281    0.7918    0.0000 C.3     1  UNL1        0.0128
     17 C           5.4902    1.7234    0.0000 C.3     1  UNL1        0.0094
     18 C           4.0915   -1.4351    0.0000 C.3     1  UNL1        0.0924
     19 C           2.4174   -0.2188    0.0000 C.3     1  UNL1       -0.0201
     20 C           6.9875    0.1953    0.0000 C.3     1  UNL1       -0.0491
     21 C           3.0966    1.9502    0.0000 C.3     1  UNL1       -0.0539
     22 C           6.8817    1.9475    0.0000 C.3     1  UNL1       -0.0169
     23 C           3.1432   -1.8661    0.0000 C.3     1  UNL1       -0.0148
     24 C           2.3006   -1.2538    0.0000 C.3     1  UNL1       -0.0453
     25 C           7.8762    1.8429    0.0000 C.3     1  UNL1       -0.0600
     26 C           6.4749    2.8610    0.0000 C.3     1  UNL1       -0.0600
     27 C           3.0426   -2.8610    0.0000 C.3     1  UNL1       -0.0600
     28 H           5.9420    0.8780    0.0000 H       1  UNL1        0.0324
     29 H           5.3497    1.4114    0.0000 H       1  UNL1        0.0324
     30 H           5.9057    2.1836    0.0000 H       1  UNL1        0.0322
     31 H           5.0762    2.1850    0.0000 H       1  UNL1        0.0322
     32 H           4.0327   -2.0523    0.0000 H       1  UNL1        0.0627
     33 H           2.2752    0.3847    0.0000 H       1  UNL1        0.0294
     34 H           1.7985   -0.2557    0.0000 H       1  UNL1        0.0294
     35 H           6.9891   -0.4247    0.0000 H       1  UNL1        0.0239
     36 H           7.6075    0.1970    0.0000 H       1  UNL1        0.0239
     37 H           6.9859    0.8153    0.0000 H       1  UNL1        0.0239
     38 H           3.5982    2.3147    0.0000 H       1  UNL1        0.0237
     39 H           2.7322    2.4518    0.0000 H       1  UNL1        0.0237
     40 H           2.5951    1.5858    0.0000 H       1  UNL1        0.0237
     41 H           6.2651    2.0123    0.0000 H       1  UNL1        0.0323
     42 H           2.5773   -2.1194    0.0000 H       1  UNL1        0.0324
     43 H           5.4941   -1.3505    0.0000 H       1  UNL1        0.2104
     44 H           1.7055   -1.0799    0.0000 H       1  UNL1        0.0270
     45 H           2.0273   -1.8104    0.0000 H       1  UNL1        0.0270
     46 H           4.7921    2.5529    0.0000 H       1  UNL1        0.2103
     47 H           2.0000    0.5258    0.0000 H       1  UNL1        0.2103
     48 H           6.7627   -1.8864    0.0000 H       1  UNL1        0.2128
     49 H           7.7057    1.2443    0.0000 H       1  UNL1        0.2102
     50 H           4.8496   -2.6308    0.0000 H       1  UNL1        0.2099
     51 H           7.8114    1.2263    0.0000 H       1  UNL1        0.0233
     52 H           8.4928    1.7781    0.0000 H       1  UNL1        0.0233
     53 H           7.9410    2.4595    0.0000 H       1  UNL1        0.0233
     54 H           7.0413    3.1132    0.0000 H       1  UNL1        0.0233
     55 H           6.2228    3.4274    0.0000 H       1  UNL1        0.0233
     56 H           5.9086    2.6088    0.0000 H       1  UNL1        0.0233
     57 H           2.4257   -2.7986    0.0000 H       1  UNL1        0.0233
     58 H           2.9801   -3.4778    0.0000 H       1  UNL1        0.0233
     59 H           3.6594   -2.9234    0.0000 H       1  UNL1        0.0233
@<TRIPOS>BOND
     1    10     1    1
     2     1    14    1
     3     8     2    1
     4     2    43    1
     5    11     3    1
     6     3    46    1
     7    13     4    1
     8     4    47    1
     9    14     5    1
    10     5    48    1
    11    15     6    1
    12     6    49    1
    13    18     7    1
    14     7    50    1
    15     8     9    1
    16     8    10    1
    17     8    11    1
    18     9    14    1
    19     9    15    1
    20     9    20    1
    21    10    13    1
    22    10    18    1
    23    11    12    1
    24    11    17    1
    25    12    13    1
    26    12    16    1
    27    12    21    1
    28    13    19    1
    29    14    16    1
    30    15    17    1
    31    15    22    1
    32    16    28    1
    33    16    29    1
    34    17    30    1
    35    17    31    1
    36    18    23    1
    37    18    32    1
    38    19    24    1
    39    19    33    1
    40    19    34    1
    41    20    35    1
    42    20    36    1
    43    20    37    1
    44    21    38    1
    45    21    39    1
    46    21    40    1
    47    22    25    1
    48    22    26    1
    49    22    41    1
    50    23    24    1
    51    23    27    1
    52    23    42    1
    53    24    44    1
    54    24    45    1
    55    25    51    1
    56    25    52    1
    57    25    53    1
    58    26    54    1
    59    26    55    1
    60    26    56    1
    61    27    57    1
    62    27    58    1
    63    27    59    1
