@<TRIPOS>MOLECULE
IMPHY004898
 31 33 0 0 0
SMALL
GASTEIGER

@<TRIPOS>ATOM
      1 O           7.2901   -1.4953    0.0000 O.3     1  UNL1       -0.4849
      2 O           7.2785    1.5740    0.0000 O.2     1  UNL1       -0.2917
      3 O           3.7702   -1.4953    0.0000 O.2     1  UNL1       -0.4219
      4 O           5.5301    1.5394    0.0000 O.3     1  UNL1       -0.5052
      5 O           2.0000   -1.4848    0.0000 O.2     1  UNL1       -0.2452
      6 C           8.1962   -0.9814    0.0000 C.3     1  UNL1        0.1121
      7 C           8.1962    0.0602    0.0000 C.3     1  UNL1        0.0500
      8 C           6.3961    0.0394    0.0000 C.ar    1  UNL1        0.1012
      9 C           7.2901    0.5740    0.0000 C.2     1  UNL1        0.1740
     10 C           6.3961   -0.9606    0.0000 C.ar    1  UNL1        0.1388
     11 C           9.1962   -0.9853    0.0000 C.3     1  UNL1       -0.0248
     12 C           8.6928   -1.8494    0.0000 C.3     1  UNL1       -0.0248
     13 C           5.5301    0.5394    0.0000 C.ar    1  UNL1        0.1415
     14 C           5.5301   -1.4606    0.0000 C.ar    1  UNL1        0.0241
     15 C           4.6641    0.0394    0.0000 C.ar    1  UNL1        0.0599
     16 C           4.6641   -0.9606    0.0000 C.ar    1  UNL1        0.1461
     17 C           3.7702    0.5740    0.0000 C.ar    1  UNL1       -0.0408
     18 C           2.8641    0.0602    0.0000 C.ar    1  UNL1        0.0237
     19 C           2.8641   -0.9814    0.0000 C.ar    1  UNL1        0.3372
     20 H           8.8070   -0.0459    0.0000 H       1  UNL1        0.0384
     21 H           8.4052    0.6439    0.0000 H       1  UNL1        0.0384
     22 H           9.1938   -1.6053    0.0000 H       1  UNL1        0.0268
     23 H           9.8162   -0.9877    0.0000 H       1  UNL1        0.0268
     24 H           8.1547   -2.1573    0.0000 H       1  UNL1        0.0268
     25 H           9.0008   -2.3875    0.0000 H       1  UNL1        0.0268
     26 H           9.2310   -1.5414    0.0000 H       1  UNL1        0.0268
     27 H           9.1985   -0.3653    0.0000 H       1  UNL1        0.0268
     28 H           5.5301   -2.0806    0.0000 H       1  UNL1        0.0691
     29 H           3.7773    1.1940    0.0000 H       1  UNL1        0.0628
     30 H           4.9932    1.8494    0.0000 H       1  UNL1        0.2922
     31 H           2.3284    0.3723    0.0000 H       1  UNL1        0.0689
@<TRIPOS>BOND
     1     1     6    1
     2     1    10    1
     3     2     9    2
     4     3    16   ar
     5     3    19   ar
     6     4    13    1
     7     4    30    1
     8     5    19    2
     9     6     7    1
    10     6    11    1
    11     6    12    1
    12     7     9    1
    13     7    20    1
    14     7    21    1
    15     8     9    1
    16     8    10   ar
    17     8    13   ar
    18    10    14   ar
    19    11    22    1
    20    11    23    1
    21    11    27    1
    22    12    24    1
    23    12    25    1
    24    12    26    1
    25    13    15   ar
    26    14    16   ar
    27    14    28    1
    28    15    16   ar
    29    15    17   ar
    30    17    18   ar
    31    17    29    1
    32    18    19   ar
    33    18    31    1
