@<TRIPOS>MOLECULE
IMPHY014487
 31 31 0 0 0
SMALL
GASTEIGER

@<TRIPOS>ATOM
      1 OG          3.7320    4.2500    0.0000 O.3     1  SER1       -0.3926
      2 O           5.4641    4.2500    0.0000 O.3     1  SER1       -0.4793
      3 OXT         6.3301    2.7500    0.0000 O.2     1  SER1       -0.2488
      4 O           2.8660    1.7500    0.0000 O.2     0  UNK0       -0.2708
      5 O           2.8660   -4.2500    0.0000 O.3     0  UNK0       -0.5068
      6 N           4.5981    1.7500    0.0000 N.am    1  SER1       -0.2971
      7 CA          4.5981    2.7500    0.0000 C.3     1  SER1        0.1437
      8 CB          3.7320    3.2500    0.0000 C.3     1  SER1        0.0730
      9 C           5.4641    3.2500    0.0000 C.2     1  SER1        0.3276
     10 C           3.7320    1.2500    0.0000 C.2     0  UNK0        0.2376
     11 C           2.8660   -1.2500    0.0000 C.ar    0  UNK0       -0.0247
     12 C           3.7320    0.2500    0.0000 C.2     0  UNK0        0.0007
     13 C           2.8660   -0.2500    0.0000 C.2     0  UNK0       -0.0497
     14 C           3.7320   -1.7500    0.0000 C.ar    0  UNK0       -0.0511
     15 C           2.0000   -1.7500    0.0000 C.ar    0  UNK0       -0.0511
     16 C           3.7320   -2.7500    0.0000 C.ar    0  UNK0       -0.0196
     17 C           2.0000   -2.7500    0.0000 C.ar    0  UNK0       -0.0196
     18 C           2.8660   -3.2500    0.0000 C.ar    0  UNK0        0.1169
     19 HA          5.1350    2.4400    0.0000 H       1  SER1        0.0638
     20 HB1         3.1215    3.3577    0.0000 H       1  SER1        0.0581
     21 HB2         3.5200    2.6674    0.0000 H       1  SER1        0.0581
     22 H           5.1350    1.4400    0.0000 H       1  SER1        0.1499
     23 H           4.2690   -0.0600    0.0000 H       0  UNK0        0.0669
     24 H           2.3291    0.0600    0.0000 H       0  UNK0        0.0625
     25 H           4.2690   -1.4400    0.0000 H       0  UNK0        0.0625
     26 H           1.4631   -1.4400    0.0000 H       0  UNK0        0.0625
     27 H           4.2690   -3.0600    0.0000 H       0  UNK0        0.0654
     28 H           1.4631   -3.0600    0.0000 H       0  UNK0        0.0654
     29 H           3.1951    4.5600    0.0000 H       1  SER1        0.2095
     30 H           6.0010    4.5600    0.0000 H       1  SER1        0.2951
     31 H           2.3291   -4.5600    0.0000 H       0  UNK0        0.2921
@<TRIPOS>BOND
     1     1     8    1
     2     1    29    1
     3     2     9    1
     4     2    30    1
     5     3     9    2
     6     4    10    2
     7     5    18    1
     8     5    31    1
     9     7     6    1
    10     6    10   am
    11     6    22    1
    12     7     8    1
    13     7     9    1
    14     7    19    1
    15     8    20    1
    16     8    21    1
    17    10    12    1
    18    11    13    1
    19    11    14   ar
    20    11    15   ar
    21    12    13    2
    22    12    23    1
    23    13    24    1
    24    14    16   ar
    25    14    25    1
    26    15    17   ar
    27    15    26    1
    28    16    18   ar
    29    16    27    1
    30    17    18   ar
    31    17    28    1
