@<TRIPOS>MOLECULE
IMPHY016130
 23 23 0 0 0
SMALL
GASTEIGER

@<TRIPOS>ATOM
      1 O           2.0000    1.7500    0.0000 O.2     1  UNL1       -0.2974
      2 C           2.8660    0.2500    0.0000 C.3     1  UNL1        0.0172
      3 C           2.0000   -0.2500    0.0000 C.3     1  UNL1       -0.0435
      4 C           3.7320   -0.2500    0.0000 C.3     1  UNL1       -0.0435
      5 C           2.0000   -1.2500    0.0000 C.3     1  UNL1       -0.0524
      6 C           3.7320   -1.2500    0.0000 C.3     1  UNL1       -0.0524
      7 C           2.8660   -1.7500    0.0000 C.3     1  UNL1       -0.0530
      8 C           2.8660    1.2500    0.0000 C.2     1  UNL1        0.1334
      9 C           3.7320    1.7500    0.0000 C.3     1  UNL1       -0.0058
     10 H           3.4030    0.5600    0.0000 H       1  UNL1        0.0377
     11 H           1.7880    0.3326    0.0000 H       1  UNL1        0.0272
     12 H           1.3894   -0.3577    0.0000 H       1  UNL1        0.0272
     13 H           4.3426   -0.3577    0.0000 H       1  UNL1        0.0272
     14 H           3.9441    0.3326    0.0000 H       1  UNL1        0.0272
     15 H           1.3894   -1.1423    0.0000 H       1  UNL1        0.0265
     16 H           1.7880   -1.8326    0.0000 H       1  UNL1        0.0265
     17 H           3.9441   -1.8326    0.0000 H       1  UNL1        0.0265
     18 H           4.3426   -1.1423    0.0000 H       1  UNL1        0.0265
     19 H           2.4675   -2.2250    0.0000 H       1  UNL1        0.0265
     20 H           3.2646   -2.2250    0.0000 H       1  UNL1        0.0265
     21 H           4.0420    1.2131    0.0000 H       1  UNL1        0.0306
     22 H           4.2690    2.0600    0.0000 H       1  UNL1        0.0306
     23 H           3.4220    2.2869    0.0000 H       1  UNL1        0.0306
@<TRIPOS>BOND
     1     1     8    2
     2     2     3    1
     3     2     4    1
     4     2     8    1
     5     2    10    1
     6     3     5    1
     7     3    11    1
     8     3    12    1
     9     4     6    1
    10     4    13    1
    11     4    14    1
    12     5     7    1
    13     5    15    1
    14     5    16    1
    15     6     7    1
    16     6    17    1
    17     6    18    1
    18     7    19    1
    19     7    20    1
    20     8     9    1
    21     9    21    1
    22     9    22    1
    23     9    23    1
