@<TRIPOS>MOLECULE
IMPHY015813
 22 21 0 0 0
SMALL
GASTEIGER

@<TRIPOS>ATOM
      1 S           2.8660   -0.4050    0.0000 S.O2    1  UNL1       -0.0337
      2 O           2.3660    0.4610    0.0000 O.2     1  UNL1       -0.1746
      3 O           3.3660   -1.2710    0.0000 O.2     1  UNL1       -0.1746
      4 O           7.1962    0.0950    0.0000 O.3     1  UNL1       -0.4795
      5 OXT         6.3301   -1.4050    0.0000 O.2     1  UNL1       -0.2493
      6 N           5.4641    1.0950    0.0000 N.3     1  UNL1       -0.3184
      7 C           4.5981   -0.4050    0.0000 C.3     1  UNL1       -0.0080
      8 C           3.7320    0.0950    0.0000 C.3     1  UNL1        0.0674
      9 CA          5.4641    0.0950    0.0000 C.3     1  UNL1        0.1047
     10 C           2.0000   -0.9050    0.0000 C.3     1  UNL1        0.0544
     11 C           6.3301   -0.4050    0.0000 C.2     1  UNL1        0.3218
     12 H           4.1996   -0.8799    0.0000 H       1  UNL1        0.0301
     13 H           4.9966   -0.8799    0.0000 H       1  UNL1        0.0301
     14 H           4.1306    0.5699    0.0000 H       1  UNL1        0.0500
     15 H           3.3335    0.5699    0.0000 H       1  UNL1        0.0500
     16 HA          6.0010    0.4050    0.0000 H       1  UNL1        0.0574
     17 H           1.6900   -0.3681    0.0000 H       1  UNL1        0.0464
     18 H           1.4631   -1.2150    0.0000 H       1  UNL1        0.0464
     19 H           2.3100   -1.4419    0.0000 H       1  UNL1        0.0464
     20 H1          6.0010    1.4050    0.0000 H       1  UNL1        0.1190
     21 H2          4.9272    1.4050    0.0000 H       1  UNL1        0.1190
     22 H           7.7331   -0.2150    0.0000 H       1  UNL1        0.2951
@<TRIPOS>BOND
     1     1     2    2
     2     1     3    2
     3     1     8    1
     4     1    10    1
     5     4    11    1
     6     4    22    1
     7     5    11    2
     8     6     9    1
     9     6    20    1
    10     6    21    1
    11     7     8    1
    12     7     9    1
    13     7    12    1
    14     7    13    1
    15     8    14    1
    16     8    15    1
    17     9    11    1
    18     9    16    1
    19    10    17    1
    20    10    18    1
    21    10    19    1
