@<TRIPOS>MOLECULE
IMPHY011532
 36 39 0 0 0
SMALL
GASTEIGER

@<TRIPOS>ATOM
      1 O           2.5836    0.3765    0.0000 O.3     1  UNL1       -0.4520
      2 O           2.5836    1.9860    0.0000 O.3     1  UNL1       -0.4526
      3 O           6.1541   -2.9696    0.0000 O.3     1  UNL1       -0.4945
      4 O           4.9611    3.3870    0.0000 O.3     1  UNL1       -0.4771
      5 O           6.5887    2.7946    0.0000 O.2     1  UNL1       -0.2451
      6 O           7.9038    0.1944    0.0000 O.co2   1  UNL1       -0.5760
      7 O           7.6660    1.4578    0.0000 O.2     1  UNL1        0.0415
      8 N           7.0321    0.6844    0.0000 N.pl3   1  UNL1        0.0803
      9 C           4.3958    0.1813    0.0000 C.ar    1  UNL1        0.0427
     10 C           5.2619    0.6813    0.0000 C.ar    1  UNL1        0.0775
     11 C           4.3798   -0.8602    0.0000 C.ar    1  UNL1       -0.0026
     12 C           3.5298    0.6813    0.0000 C.ar    1  UNL1        0.1747
     13 C           5.2778   -1.3880    0.0000 C.ar    1  UNL1        0.0309
     14 C           6.1719    0.1744    0.0000 C.ar    1  UNL1        0.2824
     15 C           5.2619    1.6813    0.0000 C.ar    1  UNL1        0.0767
     16 C           3.5298    1.6813    0.0000 C.ar    1  UNL1        0.1677
     17 C           6.1799   -0.8672    0.0000 C.ar    1  UNL1        0.0275
     18 C           4.3958    2.1813    0.0000 C.ar    1  UNL1       -0.0013
     19 C           3.4279   -1.3809    0.0000 C.ar    1  UNL1       -0.0531
     20 C           5.2862   -2.4730    0.0000 C.ar    1  UNL1        0.1280
     21 C           2.0000    1.1813    0.0000 C.3     1  UNL1        0.2333
     22 C           3.4111   -2.4657    0.0000 C.ar    1  UNL1       -0.0577
     23 C           4.3466   -3.0155    0.0000 C.ar    1  UNL1       -0.0193
     24 C           5.6039    2.6210    0.0000 C.2     1  UNL1        0.3377
     25 C           6.1580   -3.9696    0.0000 C.3     1  UNL1        0.0788
     26 H           6.7180   -1.1751    0.0000 H       1  UNL1        0.0693
     27 H           4.3958    2.8013    0.0000 H       1  UNL1        0.0664
     28 H           2.8970   -1.0606    0.0000 H       1  UNL1        0.0624
     29 H           1.5391    1.5960    0.0000 H       1  UNL1        0.1166
     30 H           1.5391    0.7665    0.0000 H       1  UNL1        0.1166
     31 H           2.8707   -2.7695    0.0000 H       1  UNL1        0.0619
     32 H           4.3442   -3.6354    0.0000 H       1  UNL1        0.0654
     33 H           5.5380   -3.9720    0.0000 H       1  UNL1        0.0660
     34 H           6.1604   -4.5896    0.0000 H       1  UNL1        0.0660
     35 H           6.7780   -3.9672    0.0000 H       1  UNL1        0.0660
     36 H           5.1732    3.9696    0.0000 H       1  UNL1        0.2954
@<TRIPOS>UNITY_ATOM_ATTR
6 1
charge -1
8 1
charge 1
@<TRIPOS>BOND
     1     1    12    1
     2     1    21    1
     3     2    16    1
     4     2    21    1
     5     3    20    1
     6     3    25    1
     7     4    24    1
     8     4    36    1
     9     5    24    2
    10     6     8    1
    11     7     8    2
    12     8    14    1
    13     9    10   ar
    14     9    11   ar
    15     9    12   ar
    16    10    14   ar
    17    10    15   ar
    18    11    13   ar
    19    11    19   ar
    20    12    16   ar
    21    13    17   ar
    22    13    20   ar
    23    14    17   ar
    24    15    18   ar
    25    15    24    1
    26    16    18   ar
    27    17    26    1
    28    18    27    1
    29    19    22   ar
    30    19    28    1
    31    20    23   ar
    32    21    29    1
    33    21    30    1
    34    22    23   ar
    35    22    31    1
    36    23    32    1
    37    25    33    1
    38    25    34    1
    39    25    35    1
