@<TRIPOS>MOLECULE
IMPHY001189
 78 80 0 0 0
SMALL
GASTEIGER

@<TRIPOS>ATOM
      1 O           6.9602   -2.0490    0.0000 O.3     1  UNL1       -0.4599
      2 O           8.0676    2.0275    0.0000 O.3     1  UNL1       -0.4569
      3 O           6.1999    2.0275    0.0000 O.3     1  UNL1       -0.4533
      4 O           6.3324   -2.6278    0.0000 O.3     1  UNL1       -0.3881
      5 O           3.6551   -0.7057    0.0000 O.3     1  UNL1       -0.4571
      6 O          10.5154   -1.7341    0.0000 O.3     1  UNL1       -0.3875
      7 O           8.2869   -3.1623    0.0000 O.2     1  UNL1       -0.2512
      8 O           9.6282    1.2760    0.0000 O.2     1  UNL1       -0.2512
      9 O           7.7604    2.7790    0.0000 O.2     1  UNL1       -0.2511
     10 O           3.2697    0.9829    0.0000 O.2     1  UNL1       -0.2511
     11 C           6.2328   -0.6302    0.0000 C.3     1  UNL1        0.0649
     12 C           8.2572    0.3447    0.0000 C.3     1  UNL1        0.0189
     13 C           8.0347   -0.6303    0.0000 C.3     1  UNL1        0.0292
     14 C           7.1337   -1.0641    0.0000 C.3     1  UNL1        0.1223
     15 C           6.0102    0.3447    0.0000 C.2     1  UNL1       -0.0110
     16 C           7.6337    1.1265    0.0000 C.3     1  UNL1        0.1496
     17 C           5.3781   -1.1379    0.0000 C.3     1  UNL1        0.0038
     18 C           6.6337    1.1265    0.0000 C.3     1  UNL1        0.1624
     19 C           6.2826   -1.6290    0.0000 C.3     1  UNL1        0.0734
     20 C           9.2477    0.6670    0.0000 C.3     1  UNL1       -0.0408
     21 C           4.6300   -0.4832    0.0000 C.3     1  UNL1        0.1253
     22 C           5.0199    0.4312    0.0000 C.2     1  UNL1       -0.0291
     23 C           8.7872   -1.3504    0.0000 C.2     1  UNL1       -0.0413
     24 C           8.4797    1.3196    0.0000 C.3     1  UNL1       -0.0554
     25 C          10.0167   -0.0356    0.0000 C.3     1  UNL1       -0.0224
     26 C           9.7849   -1.0511    0.0000 C.3     1  UNL1        0.0764
     27 C           5.3611   -2.0174    0.0000 C.3     1  UNL1       -0.0354
     28 C           7.4312   -1.5717    0.0000 C.3     1  UNL1       -0.0354
     29 C           4.5056    1.2888    0.0000 C.3     1  UNL1       -0.0399
     30 C           9.0710   -2.3093    0.0000 C.2     1  UNL1       -0.0966
     31 C           7.3021   -2.9886    0.0000 C.2     1  UNL1        0.3043
     32 C           9.0648    2.1022    0.0000 C.2     1  UNL1        0.3043
     33 C           6.7632    2.8537    0.0000 C.2     1  UNL1        0.3046
     34 C           2.9749    0.0274    0.0000 C.2     1  UNL1        0.3045
     35 C           6.6594   -3.7547    0.0000 C.3     1  UNL1        0.0332
     36 C           9.4987    3.0032    0.0000 C.3     1  UNL1        0.0332
     37 C           6.3293    3.7547    0.0000 C.3     1  UNL1        0.0333
     38 C           2.0000   -0.1952    0.0000 C.3     1  UNL1        0.0333
     39 H           7.9015   -1.4698    0.0000 H       1  UNL1        0.0389
     40 H           6.5820   -1.3470    0.0000 H       1  UNL1        0.0750
     41 H           7.3039    1.6515    0.0000 H       1  UNL1        0.0781
     42 H           4.9230   -1.5589    0.0000 H       1  UNL1        0.0315
     43 H           5.7490   -1.6347    0.0000 H       1  UNL1        0.0315
     44 H           6.0176    1.1959    0.0000 H       1  UNL1        0.0820
     45 H           9.7381    1.0464    0.0000 H       1  UNL1        0.0273
     46 H           8.9578    1.2150    0.0000 H       1  UNL1        0.0273
     47 H           4.2325   -0.0074    0.0000 H       1  UNL1        0.0782
     48 H           9.0842    1.1816    0.0000 H       1  UNL1        0.0236
     49 H           8.6177    1.9240    0.0000 H       1  UNL1        0.0236
     50 H           7.8753    1.4576    0.0000 H       1  UNL1        0.0236
     51 H          10.5887   -0.2750    0.0000 H       1  UNL1        0.0293
     52 H          10.3504    0.4869    0.0000 H       1  UNL1        0.0293
     53 H           9.6435   -1.6548    0.0000 H       1  UNL1        0.0640
     54 H           5.1203   -1.4460    0.0000 H       1  UNL1        0.0257
     55 H           4.7898   -2.2581    0.0000 H       1  UNL1        0.0257
     56 H           5.6019   -2.5887    0.0000 H       1  UNL1        0.0257
     57 H           7.4621   -2.1909    0.0000 H       1  UNL1        0.0257
     58 H           8.0504   -1.5408    0.0000 H       1  UNL1        0.0257
     59 H           7.4003   -0.9525    0.0000 H       1  UNL1        0.0257
     60 H           5.0372    1.6077    0.0000 H       1  UNL1        0.0276
     61 H           4.1866    1.8205    0.0000 H       1  UNL1        0.0276
     62 H           3.9739    0.9699    0.0000 H       1  UNL1        0.0276
     63 H           5.8117   -2.9642    0.0000 H       1  UNL1        0.2102
     64 H           8.6441   -2.7590    0.0000 H       1  UNL1        0.0535
     65 H           9.6738   -2.4542    0.0000 H       1  UNL1        0.0535
     66 H          11.1085   -1.5536    0.0000 H       1  UNL1        0.2102
     67 H           6.1844   -3.3562    0.0000 H       1  UNL1        0.0342
     68 H           6.2609   -4.2297    0.0000 H       1  UNL1        0.0342
     69 H           7.1344   -4.1532    0.0000 H       1  UNL1        0.0342
     70 H          10.0573    2.7342    0.0000 H       1  UNL1        0.0342
     71 H           9.7677    3.5618    0.0000 H       1  UNL1        0.0342
     72 H           8.9401    3.2722    0.0000 H       1  UNL1        0.0342
     73 H           6.8879    4.0237    0.0000 H       1  UNL1        0.0342
     74 H           6.0603    4.3133    0.0000 H       1  UNL1        0.0342
     75 H           5.7707    3.4857    0.0000 H       1  UNL1        0.0342
     76 H           1.8620    0.4093    0.0000 H       1  UNL1        0.0342
     77 H           1.3955   -0.3331    0.0000 H       1  UNL1        0.0342
     78 H           2.1380   -0.7996    0.0000 H       1  UNL1        0.0342
@<TRIPOS>BOND
     1    14     1    1
     2     1    31    1
     3    16     2    1
     4     2    32    1
     5    18     3    1
     6     3    33    1
     7     4    19    1
     8     4    63    1
     9    21     5    1
    10     5    34    1
    11    26     6    1
    12     6    66    1
    13     7    31    2
    14     8    32    2
    15     9    33    2
    16    10    34    2
    17    11    14    1
    18    11    15    1
    19    11    17    1
    20    11    19    1
    21    12    13    1
    22    12    16    1
    23    12    20    1
    24    12    24    1
    25    13    14    1
    26    13    23    1
    27    13    39    1
    28    14    40    1
    29    15    18    1
    30    15    22    2
    31    16    18    1
    32    16    41    1
    33    17    21    1
    34    17    42    1
    35    17    43    1
    36    18    44    1
    37    19    27    1
    38    19    28    1
    39    20    25    1
    40    20    45    1
    41    20    46    1
    42    21    22    1
    43    21    47    1
    44    22    29    1
    45    23    26    1
    46    23    30    2
    47    24    48    1
    48    24    49    1
    49    24    50    1
    50    25    26    1
    51    25    51    1
    52    25    52    1
    53    26    53    1
    54    27    54    1
    55    27    55    1
    56    27    56    1
    57    28    57    1
    58    28    58    1
    59    28    59    1
    60    29    60    1
    61    29    61    1
    62    29    62    1
    63    30    64    1
    64    30    65    1
    65    31    35    1
    66    32    36    1
    67    33    37    1
    68    34    38    1
    69    35    67    1
    70    35    68    1
    71    35    69    1
    72    36    70    1
    73    36    71    1
    74    36    72    1
    75    37    73    1
    76    37    74    1
    77    37    75    1
    78    38    76    1
    79    38    77    1
    80    38    78    1
