@<TRIPOS>MOLECULE
IMPHY009999
 35 34 0 0 0
SMALL
GASTEIGER

@<TRIPOS>ATOM
      1 O           7.1962    0.7500    0.0000 O.3     1  UNL1       -0.4646
      2 O           6.3301   -0.7500    0.0000 O.2     1  UNL1       -0.2509
      3 C           9.7942    0.2500    0.0000 C.3     1  UNL1       -0.0436
      4 C           8.9282    0.7500    0.0000 C.3     1  UNL1       -0.0162
      5 C           4.5981    0.2500    0.0000 C.3     1  UNL1       -0.0430
      6 C           3.7320    0.7500    0.0000 C.3     1  UNL1       -0.0528
      7 C           8.0622    0.2500    0.0000 C.3     1  UNL1        0.0927
      8 C           5.4641    0.7500    0.0000 C.3     1  UNL1        0.0449
      9 C          10.6603    0.7500    0.0000 C.3     1  UNL1       -0.0626
     10 C           9.7942   -0.7500    0.0000 C.3     1  UNL1       -0.0626
     11 C           2.8660    0.2500    0.0000 C.3     1  UNL1       -0.0559
     12 C           6.3301    0.2500    0.0000 C.2     1  UNL1        0.3071
     13 C           2.0000    0.7500    0.0000 C.3     1  UNL1       -0.0653
     14 H           9.2573   -0.0600    0.0000 H       1  UNL1        0.0297
     15 H           9.3267    1.2250    0.0000 H       1  UNL1        0.0300
     16 H           8.5297    1.2250    0.0000 H       1  UNL1        0.0300
     17 H           4.1996   -0.2249    0.0000 H       1  UNL1        0.0270
     18 H           4.9966   -0.2249    0.0000 H       1  UNL1        0.0270
     19 H           4.1306    1.2250    0.0000 H       1  UNL1        0.0265
     20 H           3.3335    1.2250    0.0000 H       1  UNL1        0.0265
     21 H           7.6636   -0.2249    0.0000 H       1  UNL1        0.0697
     22 H           8.4607   -0.2249    0.0000 H       1  UNL1        0.0697
     23 H           5.8626    1.2250    0.0000 H       1  UNL1        0.0377
     24 H           5.0656    1.2250    0.0000 H       1  UNL1        0.0377
     25 H           2.4675   -0.2249    0.0000 H       1  UNL1        0.0263
     26 H           3.2646   -0.2249    0.0000 H       1  UNL1        0.0263
     27 H          10.9703    0.2131    0.0000 H       1  UNL1        0.0232
     28 H          11.1972    1.0600    0.0000 H       1  UNL1        0.0232
     29 H          10.3503    1.2869    0.0000 H       1  UNL1        0.0232
     30 H           9.1742   -0.7500    0.0000 H       1  UNL1        0.0232
     31 H           9.7942   -1.3700    0.0000 H       1  UNL1        0.0232
     32 H          10.4142   -0.7500    0.0000 H       1  UNL1        0.0232
     33 H           2.3100    1.2869    0.0000 H       1  UNL1        0.0230
     34 H           1.4631    1.0600    0.0000 H       1  UNL1        0.0230
     35 H           1.6900    0.2131    0.0000 H       1  UNL1        0.0230
@<TRIPOS>BOND
     1     1     7    1
     2     1    12    1
     3     2    12    2
     4     3     4    1
     5     3     9    1
     6     3    10    1
     7     3    14    1
     8     4     7    1
     9     4    15    1
    10     4    16    1
    11     5     6    1
    12     5     8    1
    13     5    17    1
    14     5    18    1
    15     6    11    1
    16     6    19    1
    17     6    20    1
    18     7    21    1
    19     7    22    1
    20     8    12    1
    21     8    23    1
    22     8    24    1
    23     9    27    1
    24     9    28    1
    25     9    29    1
    26    10    30    1
    27    10    31    1
    28    10    32    1
    29    11    13    1
    30    11    25    1
    31    11    26    1
    32    13    33    1
    33    13    34    1
    34    13    35    1
