@<TRIPOS>MOLECULE
IMPHY006088
 55 58 0 0 0
SMALL
GASTEIGER

@<TRIPOS>ATOM
      1 O           3.9061   -1.6140    0.0000 O.3     1  UNL1       -0.4814
      2 O           7.4260   -1.6140    0.0000 O.2     1  UNL1       -0.4618
      3 O           5.6660    1.4206    0.0000 O.3     1  UNL1       -0.5052
      4 O           7.4144    1.4552    0.0000 O.2     1  UNL1       -0.2863
      5 O          11.7884    1.9548    0.0000 O.3     1  UNL1       -0.4878
      6 O          10.0680   -1.0519    0.0000 O.3     1  UNL1       -0.5060
      7 C           3.0000   -1.1002    0.0000 C.3     1  UNL1        0.1235
      8 C           4.8000   -0.0794    0.0000 C.ar    1  UNL1        0.0588
      9 C           4.8000   -1.0794    0.0000 C.ar    1  UNL1        0.1359
     10 C           3.0000   -0.0586    0.0000 C.2     1  UNL1       -0.0408
     11 C           2.0000   -1.1040    0.0000 C.3     1  UNL1       -0.0215
     12 C           2.5033   -1.9681    0.0000 C.3     1  UNL1       -0.0215
     13 C           6.5320   -0.0794    0.0000 C.ar    1  UNL1        0.1066
     14 C           3.9061    0.4553    0.0000 C.2     1  UNL1       -0.0478
     15 C           5.6660    0.4206    0.0000 C.ar    1  UNL1        0.1418
     16 C           6.5320   -1.0794    0.0000 C.ar    1  UNL1        0.1454
     17 C           5.6660   -1.5794    0.0000 C.ar    1  UNL1        0.0239
     18 C           7.4260    0.4553    0.0000 C.ar    1  UNL1        0.2038
     19 C           8.3321   -0.0586    0.0000 C.ar    1  UNL1        0.0679
     20 C           9.1962    0.4448    0.0000 C.ar    1  UNL1        0.0304
     21 C           8.3321   -1.1002    0.0000 C.ar    1  UNL1        0.1040
     22 C          10.0641   -0.0519    0.0000 C.ar    1  UNL1        0.1282
     23 C           9.1923    1.4448    0.0000 C.ar    1  UNL1       -0.0469
     24 C          10.9282    0.4515    0.0000 C.ar    1  UNL1        0.0222
     25 C          10.9243    1.4514    0.0000 C.ar    1  UNL1        0.1245
     26 C          10.0564    1.9481    0.0000 C.ar    1  UNL1       -0.0191
     27 C          12.6564    1.4581    0.0000 C.3     1  UNL1        0.1080
     28 C          13.5205    1.9615    0.0000 C.2     1  UNL1       -0.0484
     29 C          14.3884    1.4648    0.0000 C.2     1  UNL1       -0.0765
     30 C          15.2525    1.9681    0.0000 C.3     1  UNL1       -0.0439
     31 C          14.3923    0.4648    0.0000 C.3     1  UNL1       -0.0439
     32 H           2.4643    0.2535    0.0000 H       1  UNL1        0.0611
     33 H           1.9652   -1.6602    0.0000 H       1  UNL1        0.0271
     34 H           1.9976   -0.4840    0.0000 H       1  UNL1        0.0271
     35 H           1.3800   -1.1064    0.0000 H       1  UNL1        0.0271
     36 H           2.0024   -1.7240    0.0000 H       1  UNL1        0.0271
     37 H           2.1954   -2.5063    0.0000 H       1  UNL1        0.0271
     38 H           3.0415   -2.2761    0.0000 H       1  UNL1        0.0271
     39 H           3.9132    1.0752    0.0000 H       1  UNL1        0.0624
     40 H           5.6660   -2.1994    0.0000 H       1  UNL1        0.0691
     41 H           8.8678   -1.4122    0.0000 H       1  UNL1        0.1037
     42 H           5.1291    1.7306    0.0000 H       1  UNL1        0.2922
     43 H           8.6542    1.7527    0.0000 H       1  UNL1        0.0626
     44 H          11.4663    0.1435    0.0000 H       1  UNL1        0.0691
     45 H          10.0540    2.5681    0.0000 H       1  UNL1        0.0654
     46 H          12.2597    0.9816    0.0000 H       1  UNL1        0.0742
     47 H          13.0567    0.9847    0.0000 H       1  UNL1        0.0742
     48 H          10.6061   -1.3598    0.0000 H       1  UNL1        0.2922
     49 H          13.5181    2.5814    0.0000 H       1  UNL1        0.0605
     50 H          15.5646    1.4324    0.0000 H       1  UNL1        0.0274
     51 H          13.7723    0.4624    0.0000 H       1  UNL1        0.0274
     52 H          14.3947   -0.1552    0.0000 H       1  UNL1        0.0274
     53 H          15.0123    0.4672    0.0000 H       1  UNL1        0.0274
     54 H          15.7882    2.2802    0.0000 H       1  UNL1        0.0274
     55 H          14.9404    2.5039    0.0000 H       1  UNL1        0.0274
@<TRIPOS>BOND
     1     1     7    1
     2     1     9    1
     3     2    16   ar
     4     2    21   ar
     5     3    15    1
     6     3    42    1
     7     4    18    2
     8     5    25    1
     9     5    27    1
    10     6    22    1
    11     6    48    1
    12     7    10    1
    13     7    11    1
    14     7    12    1
    15     8     9   ar
    16     8    14    1
    17     8    15   ar
    18     9    17   ar
    19    10    14    2
    20    10    32    1
    21    11    34    1
    22    11    35    1
    23    11    36    1
    24    12    33    1
    25    12    37    1
    26    12    38    1
    27    13    15   ar
    28    13    16   ar
    29    13    18   ar
    30    14    39    1
    31    16    17   ar
    32    17    40    1
    33    18    19   ar
    34    19    20    1
    35    19    21   ar
    36    20    22   ar
    37    20    23   ar
    38    21    41    1
    39    22    24   ar
    40    23    26   ar
    41    23    43    1
    42    24    25   ar
    43    24    44    1
    44    25    26   ar
    45    26    45    1
    46    27    28    1
    47    27    46    1
    48    27    47    1
    49    28    29    2
    50    28    49    1
    51    29    30    1
    52    29    31    1
    53    30    50    1
    54    30    54    1
    55    30    55    1
    56    31    51    1
    57    31    52    1
    58    31    53    1
