@<TRIPOS>MOLECULE
IMPHY004362
 97 102 0 0 0
SMALL
GASTEIGER

@<TRIPOS>ATOM
      1 O           7.2764    0.3948    0.0000 O.3     1  UNL1       -0.4643
      2 O           7.2432    3.0037    0.0000 O.2     1  UNL1       -0.2868
      3 O           9.6635    1.8919    0.0000 O.2     1  UNL1       -0.2869
      4 O           8.2857   -2.4486    0.0000 O.3     1  UNL1       -0.4510
      5 O           3.7320    0.1995    0.0000 O.3     1  UNL1       -0.5064
      6 O          11.3051    0.8375    0.0000 O.3     1  UNL1       -0.5033
      7 O          11.0960   -1.1516    0.0000 O.3     1  UNL1       -0.5033
      8 O           9.6367    5.6685    0.0000 O.3     1  UNL1       -0.5065
      9 O           5.7722   -1.8720    0.0000 O.2     1  UNL1       -0.2832
     10 O           8.1094   -5.9938    0.0000 O.3     1  UNL1       -0.5064
     11 C           7.8600    1.1995    0.0000 C.3     1  UNL1        0.2593
     12 C           8.6690    0.6118    0.0000 C.ar    1  UNL1        0.0220
     13 C           7.2764    2.0043    0.0000 C.2     1  UNL1        0.2223
     14 C           6.3301    1.6996    0.0000 C.ar    1  UNL1        0.0645
     15 C           6.3301    0.6995    0.0000 C.ar    1  UNL1        0.1372
     16 C           8.6690    1.7873    0.0000 C.2     1  UNL1        0.2188
     17 C           8.5644   -0.3828    0.0000 C.ar    1  UNL1       -0.0099
     18 C           5.4641    2.1996    0.0000 C.ar    1  UNL1       -0.0406
     19 C           9.5825    1.0185    0.0000 C.ar    1  UNL1       -0.0081
     20 C           4.5981    1.6996    0.0000 C.ar    1  UNL1       -0.0013
     21 C           8.9109    2.7576    0.0000 C.ar    1  UNL1        0.0228
     22 C           5.4641    0.1995    0.0000 C.ar    1  UNL1        0.0226
     23 C           4.5981    0.6995    0.0000 C.ar    1  UNL1        0.1238
     24 C           9.3735   -0.9705    0.0000 C.ar    1  UNL1       -0.0089
     25 C           7.6509   -0.7895    0.0000 C.2     1  UNL1       -0.0078
     26 C          10.3915    0.4307    0.0000 C.ar    1  UNL1        0.1587
     27 C           3.7320    2.1996    0.0000 C.3     1  UNL1       -0.0058
     28 C          10.2870   -0.5638    0.0000 C.ar    1  UNL1        0.1588
     29 C           9.8722    3.0333    0.0000 C.ar    1  UNL1       -0.0442
     30 C           8.1916    3.4523    0.0000 C.ar    1  UNL1       -0.0476
     31 C           7.5464   -1.7840    0.0000 C.2     1  UNL1        0.1762
     32 C          10.1141    4.0036    0.0000 C.ar    1  UNL1       -0.0016
     33 C           7.8837   -3.3577    0.0000 C.ar    1  UNL1        0.1464
     34 C           6.8892   -3.2532    0.0000 C.ar    1  UNL1        0.0681
     35 C           6.6850   -2.2803    0.0000 C.2     1  UNL1        0.2315
     36 C           8.4335    4.4226    0.0000 C.ar    1  UNL1       -0.0192
     37 C           9.3947    4.6982    0.0000 C.ar    1  UNL1        0.1203
     38 C           3.7320    3.1996    0.0000 C.2     1  UNL1       -0.0809
     39 C          11.0753    4.2792    0.0000 C.3     1  UNL1       -0.0058
     40 C           8.2905   -4.2713    0.0000 C.ar    1  UNL1        0.0406
     41 C           6.3014   -4.0622    0.0000 C.ar    1  UNL1       -0.0438
     42 C           9.2850   -4.3758    0.0000 C.3     1  UNL1       -0.0023
     43 C           2.8660    3.6996    0.0000 C.2     1  UNL1       -0.0793
     44 C           7.7027   -5.0803    0.0000 C.ar    1  UNL1        0.1239
     45 C           6.7082   -4.9758    0.0000 C.ar    1  UNL1       -0.0190
     46 C          11.3173    5.2495    0.0000 C.2     1  UNL1       -0.0809
     47 C           9.6917   -5.2894    0.0000 C.2     1  UNL1       -0.0807
     48 C           2.8660    4.6996    0.0000 C.3     1  UNL1       -0.0440
     49 C           2.0000    3.1996    0.0000 C.3     1  UNL1       -0.0440
     50 C          12.2785    5.5251    0.0000 C.2     1  UNL1       -0.0793
     51 C          10.6862   -5.3939    0.0000 C.2     1  UNL1       -0.0793
     52 C          12.5204    6.4954    0.0000 C.3     1  UNL1       -0.0440
     53 C          12.9979    4.8305    0.0000 C.3     1  UNL1       -0.0440
     54 C          11.0930   -6.3074    0.0000 C.3     1  UNL1       -0.0440
     55 C          11.2740   -4.5849    0.0000 C.3     1  UNL1       -0.0440
     56 H           5.4641    2.8196    0.0000 H       1  UNL1        0.0630
     57 H           9.6473    1.6351    0.0000 H       1  UNL1        0.0660
     58 H           5.4641   -0.4205    0.0000 H       1  UNL1        0.0691
     59 H           9.3086   -1.5872    0.0000 H       1  UNL1        0.0661
     60 H           7.1493   -0.4251    0.0000 H       1  UNL1        0.0661
     61 H           3.1215    2.3072    0.0000 H       1  UNL1        0.0357
     62 H           3.5200    1.6169    0.0000 H       1  UNL1        0.0357
     63 H          10.3181    2.6026    0.0000 H       1  UNL1        0.0628
     64 H           7.5956    3.2814    0.0000 H       1  UNL1        0.0626
     65 H           7.9875    4.8533    0.0000 H       1  UNL1        0.0654
     66 H           4.2690    3.5096    0.0000 H       1  UNL1        0.0575
     67 H          11.1401    3.6626    0.0000 H       1  UNL1        0.0357
     68 H          11.6938    4.2360    0.0000 H       1  UNL1        0.0357
     69 H           3.7320   -0.4205    0.0000 H       1  UNL1        0.2921
     70 H           5.6848   -3.9974    0.0000 H       1  UNL1        0.0627
     71 H          11.8067    0.4730    0.0000 H       1  UNL1        0.2923
     72 H           9.8866   -4.2258    0.0000 H       1  UNL1        0.0358
     73 H           9.2417   -3.7573    0.0000 H       1  UNL1        0.0358
     74 H          11.0312   -1.7682    0.0000 H       1  UNL1        0.2923
     75 H           6.3437   -5.4774    0.0000 H       1  UNL1        0.0654
     76 H          10.8713    5.6802    0.0000 H       1  UNL1        0.0575
     77 H           9.3273   -5.7909    0.0000 H       1  UNL1        0.0575
     78 H           9.1907    6.0992    0.0000 H       1  UNL1        0.2921
     79 H           1.6900    3.7365    0.0000 H       1  UNL1        0.0274
     80 H           1.4631    2.8896    0.0000 H       1  UNL1        0.0274
     81 H           2.3100    2.6626    0.0000 H       1  UNL1        0.0274
     82 H           3.4860    4.6996    0.0000 H       1  UNL1        0.0274
     83 H           2.8660    5.3195    0.0000 H       1  UNL1        0.0274
     84 H           2.2460    4.6996    0.0000 H       1  UNL1        0.0274
     85 H           7.7450   -6.4954    0.0000 H       1  UNL1        0.2921
     86 H          13.1220    6.3454    0.0000 H       1  UNL1        0.0274
     87 H          12.6704    7.0970    0.0000 H       1  UNL1        0.0274
     88 H          11.9189    6.6454    0.0000 H       1  UNL1        0.0274
     89 H          12.5672    4.3845    0.0000 H       1  UNL1        0.0274
     90 H          13.4439    4.3998    0.0000 H       1  UNL1        0.0274
     91 H          13.4286    5.2765    0.0000 H       1  UNL1        0.0274
     92 H          11.7756   -4.9493    0.0000 H       1  UNL1        0.0274
     93 H          11.6384   -4.0833    0.0000 H       1  UNL1        0.0274
     94 H          10.7724   -4.2204    0.0000 H       1  UNL1        0.0274
     95 H          10.5266   -6.5596    0.0000 H       1  UNL1        0.0274
     96 H          11.3452   -6.8738    0.0000 H       1  UNL1        0.0274
     97 H          11.6594   -6.0552    0.0000 H       1  UNL1        0.0274
@<TRIPOS>BOND
     1     1    11    1
     2     1    15    1
     3     2    13    2
     4     3    16    2
     5     4    31    1
     6     4    33    1
     7     5    23    1
     8     5    69    1
     9     6    26    1
    10     6    71    1
    11     7    28    1
    12     7    74    1
    13     8    37    1
    14     8    78    1
    15     9    35    2
    16    10    44    1
    17    10    85    1
    18    11    12    1
    19    11    13    1
    20    11    16    1
    21    12    17   ar
    22    12    19   ar
    23    13    14    1
    24    14    15   ar
    25    14    18   ar
    26    15    22   ar
    27    16    21    1
    28    17    24   ar
    29    17    25    1
    30    18    20   ar
    31    18    56    1
    32    19    26   ar
    33    19    57    1
    34    20    23   ar
    35    20    27    1
    36    21    29   ar
    37    21    30   ar
    38    22    23   ar
    39    22    58    1
    40    24    28   ar
    41    24    59    1
    42    25    31    2
    43    25    60    1
    44    26    28   ar
    45    27    38    1
    46    27    61    1
    47    27    62    1
    48    29    32   ar
    49    29    63    1
    50    30    36   ar
    51    30    64    1
    52    31    35    1
    53    32    37   ar
    54    32    39    1
    55    33    34   ar
    56    33    40   ar
    57    34    35    1
    58    34    41   ar
    59    36    37   ar
    60    36    65    1
    61    38    43    2
    62    38    66    1
    63    39    46    1
    64    39    67    1
    65    39    68    1
    66    40    42    1
    67    40    44   ar
    68    41    45   ar
    69    41    70    1
    70    42    47    1
    71    42    72    1
    72    42    73    1
    73    43    48    1
    74    43    49    1
    75    44    45   ar
    76    45    75    1
    77    46    50    2
    78    46    76    1
    79    47    51    2
    80    47    77    1
    81    48    82    1
    82    48    83    1
    83    48    84    1
    84    49    79    1
    85    49    80    1
    86    49    81    1
    87    50    52    1
    88    50    53    1
    89    51    54    1
    90    51    55    1
    91    52    86    1
    92    52    87    1
    93    52    88    1
    94    53    89    1
    95    53    90    1
    96    53    91    1
    97    54    95    1
    98    54    96    1
    99    54    97    1
   100    55    92    1
   101    55    93    1
   102    55    94    1
