@<TRIPOS>MOLECULE
IMPHY016275
 23 22 0 0 0
SMALL
GASTEIGER

@<TRIPOS>ATOM
      1 C           2.8660    0.2500    0.0000 C.2     1  UNL1       -0.0757
      2 C           3.7320    0.7500    0.0000 C.2     1  UNL1       -0.0630
      3 C           2.0000    0.7500    0.0000 C.3     1  UNL1       -0.0438
      4 C           2.8660   -0.7500    0.0000 C.3     1  UNL1       -0.0438
      5 C           4.5981    0.2500    0.0000 C.2     1  UNL1       -0.0618
      6 C           5.4641    0.7500    0.0000 C.2     1  UNL1       -0.0621
      7 C           6.3301    0.2500    0.0000 C.2     1  UNL1       -0.0659
      8 C           7.1962    0.7500    0.0000 C.2     1  UNL1       -0.0871
      9 C           8.0622    0.2500    0.0000 C.3     1  UNL1       -0.0465
     10 H           3.7320    1.3700    0.0000 H       1  UNL1        0.0617
     11 H           2.3100    1.2869    0.0000 H       1  UNL1        0.0274
     12 H           1.4631    1.0600    0.0000 H       1  UNL1        0.0274
     13 H           1.6900    0.2131    0.0000 H       1  UNL1        0.0274
     14 H           2.2460   -0.7500    0.0000 H       1  UNL1        0.0274
     15 H           2.8660   -1.3700    0.0000 H       1  UNL1        0.0274
     16 H           3.4860   -0.7500    0.0000 H       1  UNL1        0.0274
     17 H           4.5981   -0.3700    0.0000 H       1  UNL1        0.0618
     18 H           5.4641    1.3700    0.0000 H       1  UNL1        0.0617
     19 H           6.3301   -0.3700    0.0000 H       1  UNL1        0.0614
     20 H           7.1962    1.3700    0.0000 H       1  UNL1        0.0569
     21 H           7.7522   -0.2869    0.0000 H       1  UNL1        0.0272
     22 H           8.5991   -0.0600    0.0000 H       1  UNL1        0.0272
     23 H           8.3722    0.7869    0.0000 H       1  UNL1        0.0272
@<TRIPOS>BOND
     1     1     2    2
     2     1     3    1
     3     1     4    1
     4     2     5    1
     5     2    10    1
     6     3    11    1
     7     3    12    1
     8     3    13    1
     9     4    14    1
    10     4    15    1
    11     4    16    1
    12     5     6    2
    13     5    17    1
    14     6     7    1
    15     6    18    1
    16     7     8    2
    17     7    19    1
    18     8     9    1
    19     8    20    1
    20     9    21    1
    21     9    22    1
    22     9    23    1
