@<TRIPOS>MOLECULE
IMPHY012759
 72 73 0 0 0
SMALL
GASTEIGER

@<TRIPOS>ATOM
      1 O           5.4920   -2.7889    0.0000 O.3     1  UNL1       -0.4854
      2 O           2.0000   -0.7543    0.0000 O.3     1  UNL1       -0.5065
      3 C           6.3981   -2.2751    0.0000 C.3     1  UNL1        0.1085
      4 C           6.3981   -1.2335    0.0000 C.3     1  UNL1       -0.0091
      5 C           7.3981   -2.2790    0.0000 C.3     1  UNL1       -0.0097
      6 C           5.4920   -0.7196    0.0000 C.3     1  UNL1       -0.0205
      7 C           4.5981   -1.2543    0.0000 C.ar    1  UNL1       -0.0018
      8 C           6.8947   -3.1430    0.0000 C.3     1  UNL1       -0.0249
      9 C           4.5981   -2.2543    0.0000 C.ar    1  UNL1        0.1278
     10 C           7.9014   -1.4149    0.0000 C.3     1  UNL1       -0.0309
     11 C           3.7320   -2.7543    0.0000 C.ar    1  UNL1       -0.0021
     12 C           3.7320   -0.7543    0.0000 C.ar    1  UNL1       -0.0133
     13 C           2.8660   -2.2543    0.0000 C.ar    1  UNL1       -0.0027
     14 C           8.9014   -1.4187    0.0000 C.2     1  UNL1       -0.0849
     15 C           2.8660   -1.2543    0.0000 C.ar    1  UNL1        0.1205
     16 C           3.7320   -3.7543    0.0000 C.3     1  UNL1       -0.0359
     17 C           9.4047   -0.5546    0.0000 C.2     1  UNL1       -0.0762
     18 C           2.0000   -2.7543    0.0000 C.3     1  UNL1       -0.0359
     19 C          10.4047   -0.5585    0.0000 C.3     1  UNL1       -0.0286
     20 C           8.9081    0.3133    0.0000 C.3     1  UNL1       -0.0438
     21 C          10.9081    0.3056    0.0000 C.3     1  UNL1       -0.0308
     22 C          11.9081    0.3018    0.0000 C.2     1  UNL1       -0.0847
     23 C          12.4114    1.1659    0.0000 C.2     1  UNL1       -0.0762
     24 C          13.4114    1.1620    0.0000 C.3     1  UNL1       -0.0286
     25 C          13.9147    2.0261    0.0000 C.3     1  UNL1       -0.0308
     26 C          11.9147    2.0338    0.0000 C.3     1  UNL1       -0.0438
     27 C          14.9147    2.0222    0.0000 C.2     1  UNL1       -0.0850
     28 C          15.4180    2.8863    0.0000 C.2     1  UNL1       -0.0796
     29 C          16.4180    2.8825    0.0000 C.3     1  UNL1       -0.0440
     30 C          14.9214    3.7543    0.0000 C.3     1  UNL1       -0.0440
     31 H           7.0089   -1.3396    0.0000 H       1  UNL1        0.0307
     32 H           6.6071   -0.6498    0.0000 H       1  UNL1        0.0307
     33 H           7.2881   -2.8891    0.0000 H       1  UNL1        0.0306
     34 H           7.9799   -2.4932    0.0000 H       1  UNL1        0.0306
     35 H           5.8856   -0.2406    0.0000 H       1  UNL1        0.0316
     36 H           5.0874   -0.2498    0.0000 H       1  UNL1        0.0316
     37 H           6.3566   -3.4510    0.0000 H       1  UNL1        0.0268
     38 H           7.2027   -3.6812    0.0000 H       1  UNL1        0.0268
     39 H           7.4329   -2.8351    0.0000 H       1  UNL1        0.0268
     40 H           8.0114   -0.8047    0.0000 H       1  UNL1        0.0309
     41 H           7.3196   -1.2006    0.0000 H       1  UNL1        0.0309
     42 H           3.7320   -0.1343    0.0000 H       1  UNL1        0.0658
     43 H           9.2093   -1.9568    0.0000 H       1  UNL1        0.0572
     44 H           3.1120   -3.7543    0.0000 H       1  UNL1        0.0279
     45 H           3.7320   -4.3743    0.0000 H       1  UNL1        0.0279
     46 H           4.3520   -3.7543    0.0000 H       1  UNL1        0.0279
     47 H           1.6900   -2.2173    0.0000 H       1  UNL1        0.0279
     48 H           1.4631   -3.0643    0.0000 H       1  UNL1        0.0279
     49 H           2.3100   -3.2912    0.0000 H       1  UNL1        0.0279
     50 H          10.2947   -1.1686    0.0000 H       1  UNL1        0.0313
     51 H          10.9865   -0.7728    0.0000 H       1  UNL1        0.0313
     52 H           9.4462    0.6213    0.0000 H       1  UNL1        0.0274
     53 H           8.6002    0.8515    0.0000 H       1  UNL1        0.0274
     54 H           8.3700    0.0054    0.0000 H       1  UNL1        0.0274
     55 H          11.0181    0.9158    0.0000 H       1  UNL1        0.0310
     56 H          10.3263    0.5199    0.0000 H       1  UNL1        0.0310
     57 H           2.0000   -0.1343    0.0000 H       1  UNL1        0.2921
     58 H          12.2160   -0.2364    0.0000 H       1  UNL1        0.0572
     59 H          13.3014    0.5518    0.0000 H       1  UNL1        0.0313
     60 H          13.9932    0.9477    0.0000 H       1  UNL1        0.0313
     61 H          14.0247    2.6362    0.0000 H       1  UNL1        0.0310
     62 H          13.3329    2.2404    0.0000 H       1  UNL1        0.0310
     63 H          12.4529    2.3417    0.0000 H       1  UNL1        0.0274
     64 H          11.6068    2.5719    0.0000 H       1  UNL1        0.0274
     65 H          11.3766    1.7259    0.0000 H       1  UNL1        0.0274
     66 H          15.2226    1.4841    0.0000 H       1  UNL1        0.0572
     67 H          16.4156    2.2625    0.0000 H       1  UNL1        0.0274
     68 H          17.0380    2.8801    0.0000 H       1  UNL1        0.0274
     69 H          16.4204    3.5025    0.0000 H       1  UNL1        0.0274
     70 H          15.4595    4.0622    0.0000 H       1  UNL1        0.0274
     71 H          14.6135    4.2924    0.0000 H       1  UNL1        0.0274
     72 H          14.3833    3.4464    0.0000 H       1  UNL1        0.0274
@<TRIPOS>BOND
     1     1     3    1
     2     1     9    1
     3     2    15    1
     4     2    57    1
     5     3     4    1
     6     3     5    1
     7     3     8    1
     8     4     6    1
     9     4    31    1
    10     4    32    1
    11     5    10    1
    12     5    33    1
    13     5    34    1
    14     6     7    1
    15     6    35    1
    16     6    36    1
    17     7     9   ar
    18     7    12   ar
    19     8    37    1
    20     8    38    1
    21     8    39    1
    22     9    11   ar
    23    10    14    1
    24    10    40    1
    25    10    41    1
    26    11    13   ar
    27    11    16    1
    28    12    15   ar
    29    12    42    1
    30    13    15   ar
    31    13    18    1
    32    14    17    2
    33    14    43    1
    34    16    44    1
    35    16    45    1
    36    16    46    1
    37    17    19    1
    38    17    20    1
    39    18    47    1
    40    18    48    1
    41    18    49    1
    42    19    21    1
    43    19    50    1
    44    19    51    1
    45    20    52    1
    46    20    53    1
    47    20    54    1
    48    21    22    1
    49    21    55    1
    50    21    56    1
    51    22    23    2
    52    22    58    1
    53    23    24    1
    54    23    26    1
    55    24    25    1
    56    24    59    1
    57    24    60    1
    58    25    27    1
    59    25    61    1
    60    25    62    1
    61    26    63    1
    62    26    64    1
    63    26    65    1
    64    27    28    2
    65    27    66    1
    66    28    29    1
    67    28    30    1
    68    29    67    1
    69    29    68    1
    70    29    69    1
    71    30    70    1
    72    30    71    1
    73    30    72    1
