@<TRIPOS>MOLECULE
IMPHY016753
 20 19 0 0 0
SMALL
GASTEIGER

@<TRIPOS>ATOM
      1 O           2.8660    0.7500    0.0000 O.3     1  UNL1       -0.4679
      2 O           3.7320   -0.7500    0.0000 O.2     1  UNL1       -0.2509
      3 C           5.4641    0.2500    0.0000 C.3     1  UNL1       -0.0432
      4 C           6.3301    0.7500    0.0000 C.3     1  UNL1       -0.0554
      5 C           4.5981    0.7500    0.0000 C.3     1  UNL1        0.0449
      6 C           7.1962    0.2500    0.0000 C.3     1  UNL1       -0.0653
      7 C           3.7320    0.2500    0.0000 C.2     1  UNL1        0.3068
      8 C           2.0000    0.2500    0.0000 C.3     1  UNL1        0.0817
      9 H           5.0656   -0.2249    0.0000 H       1  UNL1        0.0270
     10 H           5.8626   -0.2249    0.0000 H       1  UNL1        0.0270
     11 H           6.7287    1.2250    0.0000 H       1  UNL1        0.0263
     12 H           5.9316    1.2250    0.0000 H       1  UNL1        0.0263
     13 H           4.9966    1.2250    0.0000 H       1  UNL1        0.0377
     14 H           4.1996    1.2250    0.0000 H       1  UNL1        0.0377
     15 H           6.8862   -0.2869    0.0000 H       1  UNL1        0.0230
     16 H           7.7331   -0.0600    0.0000 H       1  UNL1        0.0230
     17 H           7.5062    0.7869    0.0000 H       1  UNL1        0.0230
     18 H           1.6900    0.7869    0.0000 H       1  UNL1        0.0661
     19 H           1.4631   -0.0600    0.0000 H       1  UNL1        0.0661
     20 H           2.3100   -0.2869    0.0000 H       1  UNL1        0.0661
@<TRIPOS>BOND
     1     1     7    1
     2     1     8    1
     3     2     7    2
     4     3     4    1
     5     3     5    1
     6     3     9    1
     7     3    10    1
     8     4     6    1
     9     4    11    1
    10     4    12    1
    11     5     7    1
    12     5    13    1
    13     5    14    1
    14     6    15    1
    15     6    16    1
    16     6    17    1
    17     8    18    1
    18     8    19    1
    19     8    20    1
