@<TRIPOS>MOLECULE
IMPHY006676
 82 84 0 0 0
SMALL
GASTEIGER

@<TRIPOS>ATOM
      1 O          14.7415   -4.0527    0.0000 O.3     1  UNL1       -0.4792
      2 O          12.9292   -5.2480    0.0000 O.3     1  UNL1       -0.4914
      3 O          16.0307   -1.2865    0.0000 O.2     1  UNL1       -0.2750
      4 O          19.3251   -3.2480    0.0000 O.3     1  UNL1       -0.5068
      5 O           9.4651   -1.2480    0.0000 O.2     1  UNL1       -0.2708
      6 N          14.3843   -0.7484    0.0000 N.am    1  UNL1       -0.3147
      7 N           8.5991   -2.7480    0.0000 N.am    1  UNL1       -0.3118
      8 N          13.9806    3.5917    0.0000 N.pl3   1  UNL1       -0.1138
      9 N           4.2690   -2.2480    0.0000 N.pl3   1  UNL1       -0.1138
     10 N          13.6234    5.2865    0.0000 N.pl3   1  UNL1       -0.2893
     11 N          12.3343    4.1298    0.0000 N.pl3   1  UNL1       -0.2893
     12 N           2.5369   -2.2480    0.0000 N.pl3   1  UNL1       -0.2893
     13 N           3.4030   -3.7480    0.0000 N.pl3   1  UNL1       -0.2893
     14 C          14.7415   -2.4433    0.0000 C.3     1  UNL1        0.1050
     15 C          15.3251   -3.2480    0.0000 C.3     1  UNL1        0.1405
     16 C          13.7953   -2.7480    0.0000 C.ar    1  UNL1        0.0143
     17 C          13.7953   -3.7480    0.0000 C.ar    1  UNL1        0.1669
     18 C          16.3251   -3.2480    0.0000 C.ar    1  UNL1       -0.0061
     19 C          15.0521   -1.4928    0.0000 C.2     1  UNL1        0.2245
     20 C          12.9292   -2.2480    0.0000 C.ar    1  UNL1       -0.0468
     21 C          12.9292   -4.2480    0.0000 C.ar    1  UNL1        0.1624
     22 C          12.0632   -2.7480    0.0000 C.ar    1  UNL1       -0.0209
     23 C          12.0632   -3.7480    0.0000 C.ar    1  UNL1       -0.0091
     24 C          16.8251   -4.1140    0.0000 C.ar    1  UNL1       -0.0516
     25 C          16.8251   -2.3820    0.0000 C.ar    1  UNL1       -0.0516
     26 C          14.6950    0.2021    0.0000 C.3     1  UNL1        0.0117
     27 C          14.0271    0.9464    0.0000 C.3     1  UNL1       -0.0344
     28 C          17.8251   -4.1140    0.0000 C.ar    1  UNL1       -0.0198
     29 C          17.8251   -2.3820    0.0000 C.ar    1  UNL1       -0.0198
     30 C          11.1972   -2.2480    0.0000 C.2     1  UNL1       -0.0496
     31 C          14.3378    1.8969    0.0000 C.3     1  UNL1       -0.0172
     32 C          18.3251   -3.2480    0.0000 C.ar    1  UNL1        0.1169
     33 C          13.6699    2.6412    0.0000 C.3     1  UNL1        0.1047
     34 C          10.3312   -2.7480    0.0000 C.2     1  UNL1        0.0007
     35 C          12.0632   -5.7480    0.0000 C.3     1  UNL1        0.0790
     36 C           9.4651   -2.2480    0.0000 C.2     1  UNL1        0.2369
     37 C           7.7331   -2.2480    0.0000 C.3     1  UNL1        0.0120
     38 C           6.8671   -2.7480    0.0000 C.3     1  UNL1       -0.0344
     39 C           6.0010   -2.2480    0.0000 C.3     1  UNL1       -0.0172
     40 C           5.1350   -2.7480    0.0000 C.3     1  UNL1        0.1047
     41 C          13.3128    4.3360    0.0000 C.cat   1  UNL1        0.3765
     42 C           3.4030   -2.7480    0.0000 C.cat   1  UNL1        0.3765
     43 H          14.3040   -2.0039    0.0000 H       1  UNL1        0.0484
     44 H          15.6068   -2.6957    0.0000 H       1  UNL1        0.0795
     45 H          12.9292   -1.6280    0.0000 H       1  UNL1        0.0628
     46 H          13.7776   -0.8763    0.0000 H       1  UNL1        0.1487
     47 H          11.5263   -4.0580    0.0000 H       1  UNL1        0.0661
     48 H          16.5151   -4.6510    0.0000 H       1  UNL1        0.0623
     49 H          16.5151   -1.8450    0.0000 H       1  UNL1        0.0623
     50 H          15.2419   -0.0899    0.0000 H       1  UNL1        0.0462
     51 H          15.0775    0.6900    0.0000 H       1  UNL1        0.0462
     52 H          13.4802    1.2384    0.0000 H       1  UNL1        0.0281
     53 H          13.6446    0.4585    0.0000 H       1  UNL1        0.0281
     54 H          18.1351   -4.6510    0.0000 H       1  UNL1        0.0654
     55 H          18.1351   -1.8450    0.0000 H       1  UNL1        0.0654
     56 H          11.1972   -1.6280    0.0000 H       1  UNL1        0.0625
     57 H          14.8847    1.6049    0.0000 H       1  UNL1        0.0297
     58 H          14.7203    2.3848    0.0000 H       1  UNL1        0.0297
     59 H          13.1230    2.9332    0.0000 H       1  UNL1        0.0693
     60 H          13.2874    2.1533    0.0000 H       1  UNL1        0.0693
     61 H          10.3312   -3.3680    0.0000 H       1  UNL1        0.0669
     62 H          11.7532   -5.2111    0.0000 H       1  UNL1        0.0660
     63 H          11.5263   -6.0580    0.0000 H       1  UNL1        0.0660
     64 H          12.3732   -6.2849    0.0000 H       1  UNL1        0.0660
     65 H          19.6351   -3.7849    0.0000 H       1  UNL1        0.2921
     66 H           8.1316   -1.7731    0.0000 H       1  UNL1        0.0462
     67 H           7.3346   -1.7731    0.0000 H       1  UNL1        0.0462
     68 H           6.4685   -3.2230    0.0000 H       1  UNL1        0.0281
     69 H           7.2656   -3.2230    0.0000 H       1  UNL1        0.0281
     70 H           8.5991   -3.3680    0.0000 H       1  UNL1        0.1490
     71 H           6.3996   -1.7731    0.0000 H       1  UNL1        0.0297
     72 H           5.6025   -1.7731    0.0000 H       1  UNL1        0.0297
     73 H           4.7365   -3.2230    0.0000 H       1  UNL1        0.0693
     74 H           5.5335   -3.2230    0.0000 H       1  UNL1        0.0693
     75 H          11.9202    4.5913    0.0000 H       1  UNL1        0.2546
     76 H          12.1416    3.5405    0.0000 H       1  UNL1        0.2546
     77 H          13.2094    5.7480    0.0000 H       1  UNL1        0.2546
     78 H          14.2301    5.4144    0.0000 H       1  UNL1        0.2546
     79 H           2.8660   -4.0580    0.0000 H       1  UNL1        0.2546
     80 H           2.0000   -2.5580    0.0000 H       1  UNL1        0.2546
     81 H           3.9399   -4.0580    0.0000 H       1  UNL1        0.2546
     82 H           2.5369   -1.6280    0.0000 H       1  UNL1        0.2546
@<TRIPOS>BOND
     1     1    15    1
     2     1    17    1
     3     2    21    1
     4     2    35    1
     5     3    19    2
     6     4    32    1
     7     4    65    1
     8     5    36    2
     9     6    19   am
    10     6    26    1
    11     6    46    1
    12     7    36   am
    13     7    37    1
    14     7    70    1
    15     8    33    1
    16     8    41    2
    17     9    40    1
    18     9    42    2
    19    10    41    1
    20    10    77    1
    21    10    78    1
    22    11    41    1
    23    11    75    1
    24    11    76    1
    25    12    42    1
    26    12    80    1
    27    12    82    1
    28    13    42    1
    29    13    79    1
    30    13    81    1
    31    14    15    1
    32    14    16    1
    33    14    19    1
    34    14    43    1
    35    15    18    1
    36    15    44    1
    37    16    17   ar
    38    16    20   ar
    39    17    21   ar
    40    18    24   ar
    41    18    25   ar
    42    20    22   ar
    43    20    45    1
    44    21    23   ar
    45    22    23   ar
    46    22    30    1
    47    23    47    1
    48    24    28   ar
    49    24    48    1
    50    25    29   ar
    51    25    49    1
    52    26    27    1
    53    26    50    1
    54    26    51    1
    55    27    31    1
    56    27    52    1
    57    27    53    1
    58    28    32   ar
    59    28    54    1
    60    29    32   ar
    61    29    55    1
    62    30    34    2
    63    30    56    1
    64    31    33    1
    65    31    57    1
    66    31    58    1
    67    33    59    1
    68    33    60    1
    69    34    36    1
    70    34    61    1
    71    35    62    1
    72    35    63    1
    73    35    64    1
    74    37    38    1
    75    37    66    1
    76    37    67    1
    77    38    39    1
    78    38    68    1
    79    38    69    1
    80    39    40    1
    81    39    71    1
    82    39    72    1
    83    40    73    1
    84    40    74    1
