@<TRIPOS>MOLECULE
IMPHY000969
 46 50 0 0 0
SMALL
GASTEIGER

@<TRIPOS>ATOM
      1 O           7.6789    0.7134    0.0000 O.3     1  UNL1       -0.4646
      2 O           6.8129    2.2134    0.0000 O.2     1  UNL1       -0.2453
      3 N           3.3369   -0.5600    0.0000 N.3     1  UNL1       -0.2942
      4 N           4.9022    2.1512    0.0000 N.pl3   1  UNL1       -0.3164
      5 C           4.2620    0.7134    0.0000 C.3     1  UNL1        0.0526
      6 C           4.2620   -0.2594    0.0000 C.3     1  UNL1        0.0265
      7 C           3.3369    1.0139    0.0000 C.3     1  UNL1       -0.0238
      8 C           5.1045   -0.7458    0.0000 C.3     1  UNL1       -0.0253
      9 C           5.9469   -0.2594    0.0000 C.3     1  UNL1        0.0161
     10 C           5.1045    1.1997    0.0000 C.2     1  UNL1        0.0309
     11 C           2.7652    0.2270    0.0000 C.3     1  UNL1        0.0007
     12 C           3.5392    1.3642    0.0000 C.ar    1  UNL1       -0.0130
     13 C           4.1101   -1.3078    0.0000 C.3     1  UNL1        0.0209
     14 C           5.9469    0.7134    0.0000 C.2     1  UNL1        0.0615
     15 C           5.3422   -1.3078    0.0000 C.2     1  UNL1       -0.0521
     16 C           3.9348    2.2529    0.0000 C.ar    1  UNL1        0.0353
     17 C           2.5718    1.2626    0.0000 C.ar    1  UNL1       -0.0559
     18 C           6.8129    1.2134    0.0000 C.2     1  UNL1        0.3370
     19 C           5.8422   -2.1738    0.0000 C.2     1  UNL1       -0.0861
     20 C           3.3630    3.0398    0.0000 C.ar    1  UNL1       -0.0403
     21 C           2.0000    2.0495    0.0000 C.ar    1  UNL1       -0.0614
     22 C           2.3956    2.9382    0.0000 C.ar    1  UNL1       -0.0600
     23 C           5.3422   -3.0398    0.0000 C.3     1  UNL1       -0.0465
     24 C           8.5450    1.2134    0.0000 C.3     1  UNL1        0.0820
     25 H           3.7928   -0.9681    0.0000 H       1  UNL1        0.0475
     26 H           3.5891    1.5803    0.0000 H       1  UNL1        0.0290
     27 H           2.8000    1.3239    0.0000 H       1  UNL1        0.0290
     28 H           4.7059   -1.2207    0.0000 H       1  UNL1        0.0290
     29 H           5.5030   -1.2207    0.0000 H       1  UNL1        0.0290
     30 H           6.7680   -0.4792    0.0000 H       1  UNL1        0.0398
     31 H           2.3044    0.6418    0.0000 H       1  UNL1        0.0427
     32 H           2.3044   -0.1879    0.0000 H       1  UNL1        0.0427
     33 H           3.5767   -1.6237    0.0000 H       1  UNL1        0.0473
     34 H           4.2739   -1.9058    0.0000 H       1  UNL1        0.0473
     35 H           5.2666    2.6528    0.0000 H       1  UNL1        0.1519
     36 H           2.3196    0.6962    0.0000 H       1  UNL1        0.0621
     37 H           6.4622   -2.1738    0.0000 H       1  UNL1        0.0569
     38 H           3.6152    3.6062    0.0000 H       1  UNL1        0.0636
     39 H           1.3834    1.9847    0.0000 H       1  UNL1        0.0618
     40 H           2.0312    3.4398    0.0000 H       1  UNL1        0.0618
     41 H           4.8053   -2.7298    0.0000 H       1  UNL1        0.0272
     42 H           5.0322   -3.5768    0.0000 H       1  UNL1        0.0272
     43 H           5.8792   -3.3498    0.0000 H       1  UNL1        0.0272
     44 H           8.8550    0.6764    0.0000 H       1  UNL1        0.0661
     45 H           9.0819    1.5234    0.0000 H       1  UNL1        0.0661
     46 H           8.2350    1.7503    0.0000 H       1  UNL1        0.0661
@<TRIPOS>BOND
     1     1    18    1
     2     1    24    1
     3     2    18    2
     4     3     6    1
     5     3    11    1
     6     3    13    1
     7     4    10    1
     8     4    16    1
     9     4    35    1
    10     5     6    1
    11     5     7    1
    12     5    10    1
    13     5    12    1
    14     6     8    1
    15     6    25    1
    16     7    11    1
    17     7    26    1
    18     7    27    1
    19     8     9    1
    20     8    28    1
    21     8    29    1
    22     9    14    1
    23     9    15    1
    24     9    30    1
    25    10    14    2
    26    11    31    1
    27    11    32    1
    28    12    16   ar
    29    12    17   ar
    30    13    15    1
    31    13    33    1
    32    13    34    1
    33    14    18    1
    34    15    19    2
    35    16    20   ar
    36    17    21   ar
    37    17    36    1
    38    19    23    1
    39    19    37    1
    40    20    22   ar
    41    20    38    1
    42    21    22   ar
    43    21    39    1
    44    22    40    1
    45    23    41    1
    46    23    42    1
    47    23    43    1
    48    24    44    1
    49    24    45    1
    50    24    46    1
