@<TRIPOS>MOLECULE
IMPHY014187
 123 129 0 0 0
SMALL
GASTEIGER

@<TRIPOS>ATOM
      1 O           8.9271   -3.2583    0.0000 O.3     1  UNL1       -0.3877
      2 O           6.0010   -6.1595    0.0000 O.3     1  UNL1       -0.3454
      3 O           8.8447    2.2359    0.0000 O.3     1  UNL1       -0.3451
      4 O           4.2690   -6.1595    0.0000 O.3     1  UNL1       -0.3405
      5 O           7.1963    2.7676    0.0000 O.3     1  UNL1       -0.3431
      6 O           6.0010   -8.1595    0.0000 O.3     1  UNL1       -0.3841
      7 O           4.2690   -9.1595    0.0000 O.3     1  UNL1       -0.3864
      8 O           9.4587    4.1393    0.0000 O.3     1  UNL1       -0.3841
      9 O           2.5369   -8.1595    0.0000 O.3     1  UNL1       -0.3865
     10 O           8.1173    5.6227    0.0000 O.3     1  UNL1       -0.3744
     11 O           6.1619    5.2028    0.0000 O.3     1  UNL1       -0.3402
     12 O           2.5369   -5.1595    0.0000 O.3     1  UNL1       -0.3924
     13 O           7.4466    6.3645    0.0000 O.3     1  UNL1       -0.3405
     14 O           4.8204    6.6862    0.0000 O.3     1  UNL1       -0.3841
     15 O           5.4344    8.5896    0.0000 O.3     1  UNL1       -0.3864
     16 O           7.3898    9.0096    0.0000 O.3     1  UNL1       -0.3865
     17 O           9.0382    8.4779    0.0000 O.3     1  UNL1       -0.3924
     18 C           6.9701   -3.6707    0.0000 C.3     1  UNL1        0.0022
     19 C           7.9486   -3.4645    0.0000 C.3     1  UNL1        0.0751
     20 C           8.2593   -2.5140    0.0000 C.3     1  UNL1       -0.0046
     21 C           7.5914   -1.7697    0.0000 C.3     1  UNL1       -0.0262
     22 C           6.8671   -4.6595    0.0000 C.3     1  UNL1       -0.0068
     23 C           6.3023   -2.9264    0.0000 C.3     1  UNL1       -0.0444
     24 C           7.8997   -0.7747    0.0000 C.3     1  UNL1       -0.0077
     25 C           8.4419   -4.3276    0.0000 C.3     1  UNL1       -0.0228
     26 C           6.6129   -1.9759    0.0000 C.3     1  UNL1       -0.0485
     27 C           7.7748   -5.0646    0.0000 C.3     1  UNL1       -0.0447
     28 C           9.2817   -2.3149    0.0000 C.3     1  UNL1       -0.0287
     29 C           5.9916   -3.8770    0.0000 C.3     1  UNL1       -0.0566
     30 C           8.9173   -0.5521    0.0000 C.2     1  UNL1       -0.0648
     31 C           6.0010   -5.1595    0.0000 C.3     1  UNL1        0.0624
     32 C           7.1566    0.0159    0.0000 C.3     1  UNL1       -0.0413
     33 C           9.6129   -1.3274    0.0000 C.2     1  UNL1       -0.0838
     34 C           6.9228   -0.9885    0.0000 C.3     1  UNL1       -0.0556
     35 C           9.2623    0.4766    0.0000 C.3     1  UNL1       -0.0047
     36 C           7.4778    1.0522    0.0000 C.3     1  UNL1       -0.0254
     37 C           8.5377    1.2842    0.0000 C.3     1  UNL1        0.0655
     38 C           5.1350   -4.6595    0.0000 C.3     1  UNL1       -0.0383
     39 C           5.1350   -6.6595    0.0000 C.3     1  UNL1        0.1882
     40 C           8.1740    2.9776    0.0000 C.3     1  UNL1        0.1881
     41 C           5.1350   -7.6595    0.0000 C.3     1  UNL1        0.1341
     42 C           4.2690   -8.1595    0.0000 C.3     1  UNL1        0.1141
     43 C           8.4810    3.9293    0.0000 C.3     1  UNL1        0.1344
     44 C           3.4030   -6.6595    0.0000 C.3     1  UNL1        0.1130
     45 C           3.4030   -7.6595    0.0000 C.3     1  UNL1        0.1119
     46 C           7.8103    4.6710    0.0000 C.3     1  UNL1        0.1174
     47 C           6.5256    3.5093    0.0000 C.3     1  UNL1        0.0877
     48 C           6.8326    4.4610    0.0000 C.3     1  UNL1        0.1162
     49 C           2.5369   -6.1595    0.0000 C.3     1  UNL1        0.0730
     50 C           5.5479    3.2993    0.0000 C.3     1  UNL1       -0.0360
     51 C           6.4688    6.1545    0.0000 C.3     1  UNL1        0.1884
     52 C           9.0950    5.8327    0.0000 C.3     1  UNL1        0.0370
     53 C           5.7981    6.8962    0.0000 C.3     1  UNL1        0.1341
     54 C           6.1051    7.8479    0.0000 C.3     1  UNL1        0.1141
     55 C           7.7536    7.3162    0.0000 C.3     1  UNL1        0.1130
     56 C           7.0828    8.0579    0.0000 C.3     1  UNL1        0.1119
     57 C           8.7313    7.5262    0.0000 C.3     1  UNL1        0.0730
     58 H           8.8221   -3.1510    0.0000 H       1  UNL1        0.0335
     59 H           8.4218   -1.5880    0.0000 H       1  UNL1        0.0313
     60 H           7.6032   -4.2345    0.0000 H       1  UNL1        0.0332
     61 H           5.7554   -2.6344    0.0000 H       1  UNL1        0.0272
     62 H           5.9197   -3.4144    0.0000 H       1  UNL1        0.0272
     63 H           8.8553   -4.7896    0.0000 H       1  UNL1        0.0293
     64 H           8.9449   -3.9650    0.0000 H       1  UNL1        0.0293
     65 H           6.5924   -1.3563    0.0000 H       1  UNL1        0.0268
     66 H           5.9991   -1.8886    0.0000 H       1  UNL1        0.0268
     67 H           7.4641   -5.6011    0.0000 H       1  UNL1        0.0270
     68 H           8.2757   -5.4300    0.0000 H       1  UNL1        0.0270
     69 H           9.2943   -2.9348    0.0000 H       1  UNL1        0.0311
     70 H           9.8946   -2.4086    0.0000 H       1  UNL1        0.0311
     71 H           5.8638   -3.2703    0.0000 H       1  UNL1        0.0236
     72 H           5.3849   -4.0048    0.0000 H       1  UNL1        0.0236
     73 H           6.1195   -4.4836    0.0000 H       1  UNL1        0.0236
     74 H           6.5380   -5.4695    0.0000 H       1  UNL1        0.0597
     75 H           6.6046    0.2980    0.0000 H       1  UNL1        0.0274
     76 H           6.7842   -0.4798    0.0000 H       1  UNL1        0.0274
     77 H          10.2201   -1.2019    0.0000 H       1  UNL1        0.0572
     78 H           9.3412   -3.7198    0.0000 H       1  UNL1        0.2102
     79 H           6.7903   -0.3828    0.0000 H       1  UNL1        0.0238
     80 H           6.3172   -1.1210    0.0000 H       1  UNL1        0.0238
     81 H           7.0554   -1.5942    0.0000 H       1  UNL1        0.0238
     82 H           9.8077    0.1818    0.0000 H       1  UNL1        0.0335
     83 H           9.6461    0.9635    0.0000 H       1  UNL1        0.0335
     84 H           7.4508    1.6716    0.0000 H       1  UNL1        0.0290
     85 H           6.8629    1.1317    0.0000 H       1  UNL1        0.0290
     86 H           8.1210    1.7432    0.0000 H       1  UNL1        0.0600
     87 H           5.4450   -4.1225    0.0000 H       1  UNL1        0.0255
     88 H           4.5981   -4.3495    0.0000 H       1  UNL1        0.0255
     89 H           4.8250   -5.1964    0.0000 H       1  UNL1        0.0255
     90 H           5.1350   -6.0395    0.0000 H       1  UNL1        0.0937
     91 H           7.9836    2.3875    0.0000 H       1  UNL1        0.0937
     92 H           5.1350   -8.2795    0.0000 H       1  UNL1        0.0671
     93 H           3.7320   -8.4695    0.0000 H       1  UNL1        0.0648
     94 H           8.8968    3.4694    0.0000 H       1  UNL1        0.0671
     95 H           3.4030   -6.0395    0.0000 H       1  UNL1        0.0647
     96 H           3.4030   -8.2795    0.0000 H       1  UNL1        0.0647
     97 H           8.4164    4.8012    0.0000 H       1  UNL1        0.0650
     98 H           6.3352    2.9193    0.0000 H       1  UNL1        0.0621
     99 H           7.0229    5.0511    0.0000 H       1  UNL1        0.0650
    100 H           6.5380   -7.8495    0.0000 H       1  UNL1        0.2101
    101 H           1.9264   -6.0518    0.0000 H       1  UNL1        0.0584
    102 H           2.3249   -6.7421    0.0000 H       1  UNL1        0.0584
    103 H           3.7320   -9.4695    0.0000 H       1  UNL1        0.2100
    104 H           9.8745    3.6794    0.0000 H       1  UNL1        0.2101
    105 H           2.0000   -7.8495    0.0000 H       1  UNL1        0.2100
    106 H           5.4177    3.9055    0.0000 H       1  UNL1        0.0255
    107 H           4.9417    3.1691    0.0000 H       1  UNL1        0.0255
    108 H           5.6781    2.6932    0.0000 H       1  UNL1        0.0255
    109 H           2.0000   -4.8495    0.0000 H       1  UNL1        0.2095
    110 H           5.8627    6.0243    0.0000 H       1  UNL1        0.0938
    111 H           9.2252    5.2265    0.0000 H       1  UNL1        0.0524
    112 H           9.7011    5.9629    0.0000 H       1  UNL1        0.0524
    113 H           8.9648    6.4389    0.0000 H       1  UNL1        0.0524
    114 H           5.3823    7.3561    0.0000 H       1  UNL1        0.0671
    115 H           6.2955    8.4380    0.0000 H       1  UNL1        0.0648
    116 H           8.1694    6.8563    0.0000 H       1  UNL1        0.0647
    117 H           7.6890    8.1881    0.0000 H       1  UNL1        0.0647
    118 H           4.4046    7.1461    0.0000 H       1  UNL1        0.2101
    119 H           8.7542    6.9066    0.0000 H       1  UNL1        0.0584
    120 H           9.3454    7.4412    0.0000 H       1  UNL1        0.0584
    121 H           5.6248    9.1797    0.0000 H       1  UNL1        0.2100
    122 H           6.9740    9.4695    0.0000 H       1  UNL1        0.2100
    123 H           9.6444    8.6081    0.0000 H       1  UNL1        0.2095
@<TRIPOS>BOND
     1    19     1    1
     2     1    78    1
     3    31     2    1
     4    39     2    1
     5    37     3    1
     6    40     3    1
     7     4    39    1
     8     4    44    1
     9     5    40    1
    10     5    47    1
    11    41     6    1
    12     6   100    1
    13    42     7    1
    14     7   103    1
    15    43     8    1
    16     8   104    1
    17    45     9    1
    18     9   105    1
    19    46    10    1
    20    10    52    1
    21    48    11    1
    22    51    11    1
    23    12    49    1
    24    12   109    1
    25    13    51    1
    26    13    55    1
    27    53    14    1
    28    14   118    1
    29    54    15    1
    30    15   121    1
    31    56    16    1
    32    16   122    1
    33    17    57    1
    34    17   123    1
    35    18    19    1
    36    18    22    1
    37    18    23    1
    38    18    29    1
    39    19    20    1
    40    19    25    1
    41    20    21    1
    42    20    28    1
    43    20    58    1
    44    21    24    1
    45    21    26    1
    46    21    59    1
    47    22    27    1
    48    22    31    1
    49    22    60    1
    50    23    26    1
    51    23    61    1
    52    23    62    1
    53    24    30    1
    54    24    32    1
    55    24    34    1
    56    25    27    1
    57    25    63    1
    58    25    64    1
    59    26    65    1
    60    26    66    1
    61    27    67    1
    62    27    68    1
    63    28    33    1
    64    28    69    1
    65    28    70    1
    66    29    71    1
    67    29    72    1
    68    29    73    1
    69    30    33    2
    70    30    35    1
    71    31    38    1
    72    31    74    1
    73    32    36    1
    74    32    75    1
    75    32    76    1
    76    33    77    1
    77    34    79    1
    78    34    80    1
    79    34    81    1
    80    35    37    1
    81    35    82    1
    82    35    83    1
    83    36    37    1
    84    36    84    1
    85    36    85    1
    86    37    86    1
    87    38    87    1
    88    38    88    1
    89    38    89    1
    90    39    41    1
    91    39    90    1
    92    40    43    1
    93    40    91    1
    94    41    42    1
    95    41    92    1
    96    42    45    1
    97    42    93    1
    98    43    46    1
    99    43    94    1
   100    44    45    1
   101    44    49    1
   102    44    95    1
   103    45    96    1
   104    46    48    1
   105    46    97    1
   106    47    48    1
   107    47    50    1
   108    47    98    1
   109    48    99    1
   110    49   101    1
   111    49   102    1
   112    50   106    1
   113    50   107    1
   114    50   108    1
   115    51    53    1
   116    51   110    1
   117    52   111    1
   118    52   112    1
   119    52   113    1
   120    53    54    1
   121    53   114    1
   122    54    56    1
   123    54   115    1
   124    55    56    1
   125    55    57    1
   126    55   116    1
   127    56   117    1
   128    57   119    1
   129    57   120    1
