@<TRIPOS>MOLECULE
IMPHY015285
 22 23 0 0 0
SMALL
GASTEIGER

@<TRIPOS>ATOM
      1 CL          2.8660    1.8776    0.0000 Cl      1  UNL1       -0.0823
      2 S           4.6783    0.6824    0.0000 S.2     1  UNL1       -0.0465
      3 N           4.6783   -0.9271    0.0000 N.ar    1  UNL1       -0.3209
      4 N           6.2619   -0.1224    0.0000 N.2     1  UNL1       -0.1244
      5 N           6.7619    0.7437    0.0000 N.2     1  UNL1       -0.1630
      6 C           3.7320   -0.6224    0.0000 C.ar    1  UNL1        0.0589
      7 C           3.7320    0.3776    0.0000 C.ar    1  UNL1        0.0574
      8 C           5.2619   -0.1224    0.0000 C.ar    1  UNL1        0.1952
      9 C           2.8660   -1.1224    0.0000 C.ar    1  UNL1       -0.0369
     10 C           4.9889   -1.8776    0.0000 C.3     1  UNL1        0.0143
     11 C           2.8660    0.8776    0.0000 C.ar    1  UNL1        0.0568
     12 C           2.0000   -0.6224    0.0000 C.ar    1  UNL1       -0.0584
     13 C           2.0000    0.3776    0.0000 C.ar    1  UNL1       -0.0422
     14 C           7.7619    0.7437    0.0000 C.2     1  UNL1        0.0136
     15 H           2.8660   -1.7424    0.0000 H       1  UNL1        0.0638
     16 H           4.3996   -2.0702    0.0000 H       1  UNL1        0.0456
     17 H           5.1815   -2.4670    0.0000 H       1  UNL1        0.0456
     18 H           5.5783   -1.6850    0.0000 H       1  UNL1        0.0456
     19 H           1.4631   -0.9324    0.0000 H       1  UNL1        0.0619
     20 H           1.4631    0.6876    0.0000 H       1  UNL1        0.0632
     21 H           8.0719    1.2806    0.0000 H       1  UNL1        0.0763
     22 H           8.0719    0.2067    0.0000 H       1  UNL1        0.0763
@<TRIPOS>BOND
     1     1    11    1
     2     2     7   ar
     3     2     8   ar
     4     3     6   ar
     5     3     8   ar
     6     3    10    1
     7     4     5    1
     8     4     8    2
     9     5    14    2
    10     6     7   ar
    11     6     9   ar
    12     7    11   ar
    13     9    12   ar
    14     9    15    1
    15    10    16    1
    16    10    17    1
    17    10    18    1
    18    11    13   ar
    19    12    13   ar
    20    12    19    1
    21    13    20    1
    22    14    21    1
    23    14    22    1
