@<TRIPOS>MOLECULE
IMPHY002326
 85 89 0 0 0
SMALL
GASTEIGER

@<TRIPOS>ATOM
      1 O          10.5929   -0.3730    0.0000 O.3     1  UNL1       -0.3915
      2 O           2.5357   -1.9012    0.0000 O.3     1  UNL1       -0.3912
      3 O          12.4513    1.4754    0.0000 O.3     1  UNL1       -0.3888
      4 C           7.9288    0.1511    0.0000 C.3     1  UNL1       -0.0207
      5 C           7.0628   -0.3489    0.0000 C.3     1  UNL1       -0.0230
      6 C           7.9288    1.1511    0.0000 C.3     1  UNL1       -0.0293
      7 C           6.1968    0.1511    0.0000 C.3     1  UNL1       -0.0294
      8 C           8.8228    1.6858    0.0000 C.3     1  UNL1       -0.0232
      9 C           5.2868   -0.3557    0.0000 C.3     1  UNL1       -0.0252
     10 C           9.7288    1.1719    0.0000 C.3     1  UNL1       -0.0039
     11 C           5.2787   -1.3973    0.0000 C.3     1  UNL1       -0.0278
     12 C           8.8228   -0.3835    0.0000 C.3     1  UNL1       -0.0204
     13 C           7.0628    1.6511    0.0000 C.3     1  UNL1       -0.0489
     14 C           6.1968    1.1511    0.0000 C.3     1  UNL1       -0.0489
     15 C           7.0789   -1.3904    0.0000 C.3     1  UNL1       -0.0466
     16 C           9.7288    0.1303    0.0000 C.3     1  UNL1        0.0594
     17 C          10.4911    1.8727    0.0000 C.3     1  UNL1       -0.0070
     18 C           9.0329    2.6997    0.0000 C.3     1  UNL1       -0.0467
     19 C           6.1808   -1.9181    0.0000 C.3     1  UNL1       -0.0486
     20 C           4.3433   -1.9470    0.0000 C.3     1  UNL1       -0.0056
     21 C           8.2709   -0.7885    0.0000 C.3     1  UNL1       -0.0587
     22 C           7.7056   -1.1149    0.0000 C.3     1  UNL1       -0.0588
     23 C           4.3599    0.2084    0.0000 C.3     1  UNL1       -0.0447
     24 C          10.0619    2.8150    0.0000 C.3     1  UNL1       -0.0468
     25 C           7.9529    2.1791    0.0000 C.3     1  UNL1       -0.0589
     26 C           5.2945    0.6442    0.0000 C.3     1  UNL1       -0.0590
     27 C           3.4037   -1.4046    0.0000 C.3     1  UNL1        0.0606
     28 C           3.4120   -0.3196    0.0000 C.3     1  UNL1       -0.0258
     29 C          11.4712    1.6740    0.0000 C.3     1  UNL1        0.0637
     30 C           3.8467   -2.8150    0.0000 C.3     1  UNL1       -0.0572
     31 C           4.8466   -2.8111    0.0000 C.3     1  UNL1       -0.0572
     32 C          11.6699    2.6541    0.0000 C.3     1  UNL1       -0.0361
     33 C          11.2725    0.6940    0.0000 C.3     1  UNL1       -0.0361
     34 H           8.6682    0.7318    0.0000 H       1  UNL1        0.0312
     35 H           6.9329    0.5761    0.0000 H       1  UNL1        0.0312
     36 H          10.5071    0.8302    0.0000 H       1  UNL1        0.0335
     37 H           5.2820   -2.2473    0.0000 H       1  UNL1        0.0312
     38 H           8.4182   -0.8533    0.0000 H       1  UNL1        0.0296
     39 H           9.2164   -0.8626    0.0000 H       1  UNL1        0.0296
     40 H           7.4613    2.1261    0.0000 H       1  UNL1        0.0268
     41 H           6.6643    2.1261    0.0000 H       1  UNL1        0.0268
     42 H           5.9847    1.7337    0.0000 H       1  UNL1        0.0268
     43 H           5.5862    1.0435    0.0000 H       1  UNL1        0.0268
     44 H           7.2969   -1.9708    0.0000 H       1  UNL1        0.0271
     45 H           7.6880   -1.2749    0.0000 H       1  UNL1        0.0271
     46 H          10.2664    0.4393    0.0000 H       1  UNL1        0.0596
     47 H          11.0201    2.5381    0.0000 H       1  UNL1        0.0332
     48 H           9.0290    3.3197    0.0000 H       1  UNL1        0.0271
     49 H           8.4159    2.7610    0.0000 H       1  UNL1        0.0271
     50 H           5.7835   -2.3941    0.0000 H       1  UNL1        0.0268
     51 H           6.5818   -2.3910    0.0000 H       1  UNL1        0.0268
     52 H           7.6884   -1.0006    0.0000 H       1  UNL1        0.0235
     53 H           8.4830   -1.3711    0.0000 H       1  UNL1        0.0235
     54 H           8.8535   -0.5764    0.0000 H       1  UNL1        0.0235
     55 H           7.2306   -1.5134    0.0000 H       1  UNL1        0.0235
     56 H           8.1041   -1.5899    0.0000 H       1  UNL1        0.0235
     57 H           8.1805   -0.7164    0.0000 H       1  UNL1        0.0235
     58 H           4.7681    0.6750    0.0000 H       1  UNL1        0.0271
     59 H           3.9700    0.6904    0.0000 H       1  UNL1        0.0271
     60 H          10.6500    3.0113    0.0000 H       1  UNL1        0.0269
     61 H           9.9285    3.4205    0.0000 H       1  UNL1        0.0269
     62 H           8.2588    2.7184    0.0000 H       1  UNL1        0.0235
     63 H           7.4136    2.4850    0.0000 H       1  UNL1        0.0235
     64 H           7.6471    1.6398    0.0000 H       1  UNL1        0.0235
     65 H           5.9145    0.6395    0.0000 H       1  UNL1        0.0235
     66 H           5.2993    1.2642    0.0000 H       1  UNL1        0.0235
     67 H           4.6745    0.6490    0.0000 H       1  UNL1        0.0235
     68 H           3.4025   -2.0246    0.0000 H       1  UNL1        0.0599
     69 H           3.2075    0.2657    0.0000 H       1  UNL1        0.0290
     70 H           2.8004   -0.4210    0.0000 H       1  UNL1        0.0290
     71 H           4.3109   -3.1232    0.0000 H       1  UNL1        0.0236
     72 H           5.1587   -3.3469    0.0000 H       1  UNL1        0.0236
     73 H           3.3085   -2.5071    0.0000 H       1  UNL1        0.0236
     74 H           5.3824   -2.4991    0.0000 H       1  UNL1        0.0236
     75 H           3.5387   -3.3531    0.0000 H       1  UNL1        0.0236
     76 H           4.3848   -3.1229    0.0000 H       1  UNL1        0.0236
     77 H          10.5905   -0.9930    0.0000 H       1  UNL1        0.2098
     78 H          10.6649    0.8171    0.0000 H       1  UNL1        0.0257
     79 H          12.2775    2.5309    0.0000 H       1  UNL1        0.0257
     80 H          11.7931    3.2617    0.0000 H       1  UNL1        0.0257
     81 H          11.0622    2.7773    0.0000 H       1  UNL1        0.0257
     82 H          11.1494    0.0863    0.0000 H       1  UNL1        0.0257
     83 H          11.8802    0.5708    0.0000 H       1  UNL1        0.0257
     84 H           2.0000   -1.5891    0.0000 H       1  UNL1        0.2098
     85 H          12.8618    1.9400    0.0000 H       1  UNL1        0.2101
@<TRIPOS>BOND
     1    16     1    1
     2     1    77    1
     3    27     2    1
     4     2    84    1
     5     3    29    1
     6     3    85    1
     7     4     5    1
     8     4     6    1
     9     4    12    1
    10     4    21    1
    11     5     7    1
    12     5    15    1
    13     5    22    1
    14     6     8    1
    15     6    13    1
    16     6    34    1
    17     7     9    1
    18     7    14    1
    19     7    35    1
    20     8    10    1
    21     8    18    1
    22     8    25    1
    23     9    11    1
    24     9    23    1
    25     9    26    1
    26    10    16    1
    27    10    17    1
    28    10    36    1
    29    11    19    1
    30    11    20    1
    31    11    37    1
    32    12    16    1
    33    12    38    1
    34    12    39    1
    35    13    14    1
    36    13    40    1
    37    13    41    1
    38    14    42    1
    39    14    43    1
    40    15    19    1
    41    15    44    1
    42    15    45    1
    43    16    46    1
    44    17    24    1
    45    17    29    1
    46    17    47    1
    47    18    24    1
    48    18    48    1
    49    18    49    1
    50    19    50    1
    51    19    51    1
    52    20    27    1
    53    20    30    1
    54    20    31    1
    55    21    52    1
    56    21    53    1
    57    21    54    1
    58    22    55    1
    59    22    56    1
    60    22    57    1
    61    23    28    1
    62    23    58    1
    63    23    59    1
    64    24    60    1
    65    24    61    1
    66    25    62    1
    67    25    63    1
    68    25    64    1
    69    26    65    1
    70    26    66    1
    71    26    67    1
    72    27    28    1
    73    27    68    1
    74    28    69    1
    75    28    70    1
    76    29    32    1
    77    29    33    1
    78    30    73    1
    79    30    75    1
    80    30    76    1
    81    31    71    1
    82    31    72    1
    83    31    74    1
    84    32    79    1
    85    32    80    1
    86    32    81    1
    87    33    78    1
    88    33    82    1
    89    33    83    1
