@<TRIPOS>MOLECULE
IMPHY006371
 27 28 0 0 0
SMALL
GASTEIGER

@<TRIPOS>ATOM
      1 O           5.4641   -0.9050    0.0000 O.2     1  UNL1       -0.4215
      2 O           5.4641    2.0950    0.0000 O.3     1  UNL1       -0.5057
      3 O           7.1962   -0.9050    0.0000 O.2     1  UNL1       -0.2443
      4 O           7.1962    2.0950    0.0000 O.2     1  UNL1       -0.2920
      5 C           4.5981   -0.4050    0.0000 C.ar    1  UNL1        0.1426
      6 C           3.7320   -0.9050    0.0000 C.ar    1  UNL1        0.0175
      7 C           6.3301    0.5950    0.0000 C.ar    1  UNL1        0.1426
      8 C           4.5981    0.5950    0.0000 C.ar    1  UNL1        0.0238
      9 C           5.4641    1.0950    0.0000 C.ar    1  UNL1        0.1377
     10 C           6.3301   -0.4050    0.0000 C.ar    1  UNL1        0.3514
     11 C           2.8660   -0.4050    0.0000 C.ar    1  UNL1       -0.0511
     12 C           3.7320   -1.9050    0.0000 C.ar    1  UNL1       -0.0511
     13 C           7.1962    1.0950    0.0000 C.2     1  UNL1        0.1705
     14 C           2.0000   -0.9050    0.0000 C.ar    1  UNL1       -0.0611
     15 C           2.8660   -2.4050    0.0000 C.ar    1  UNL1       -0.0611
     16 C           2.0000   -1.9050    0.0000 C.ar    1  UNL1       -0.0617
     17 C           8.0622    0.5950    0.0000 C.3     1  UNL1       -0.0010
     18 H           4.0611    0.9050    0.0000 H       1  UNL1        0.0691
     19 H           2.8660    0.2150    0.0000 H       1  UNL1        0.0625
     20 H           4.2690   -2.2150    0.0000 H       1  UNL1        0.0625
     21 H           1.4631   -0.5950    0.0000 H       1  UNL1        0.0618
     22 H           2.8660   -3.0250    0.0000 H       1  UNL1        0.0618
     23 H           1.4631   -2.2150    0.0000 H       1  UNL1        0.0618
     24 H           7.7522    0.0581    0.0000 H       1  UNL1        0.0309
     25 H           8.5991    0.2850    0.0000 H       1  UNL1        0.0309
     26 H           8.3722    1.1319    0.0000 H       1  UNL1        0.0309
     27 H           4.9272    2.4050    0.0000 H       1  UNL1        0.2922
@<TRIPOS>BOND
     1     1     5   ar
     2     1    10   ar
     3     2     9    1
     4     2    27    1
     5     3    10    2
     6     4    13    2
     7     5     6    1
     8     5     8   ar
     9     6    11   ar
    10     6    12   ar
    11     7     9   ar
    12     7    10   ar
    13     7    13    1
    14     8     9   ar
    15     8    18    1
    16    11    14   ar
    17    11    19    1
    18    12    15   ar
    19    12    20    1
    20    13    17    1
    21    14    16   ar
    22    14    21    1
    23    15    16   ar
    24    15    22    1
    25    16    23    1
    26    17    24    1
    27    17    25    1
    28    17    26    1
