@<TRIPOS>MOLECULE
IMPHY005702
 72 77 0 0 0
SMALL
GASTEIGER

@<TRIPOS>ATOM
      1 O           3.0172    2.7340    0.0000 O.3     1  UNL1       -0.3367
      2 O           2.8090    1.6922    0.0000 O.3     1  UNL1       -0.3482
      3 O           2.8565    0.6498    0.0000 O.3     1  UNL1       -0.3707
      4 O           4.5445   -0.3248    0.0000 O.3     1  UNL1       -0.4554
      5 O           6.9438    3.8874    0.0000 O.3     1  UNL1       -0.5031
      6 O           6.8974    5.8250    0.0000 O.3     1  UNL1       -0.4914
      7 O           6.2766   -0.3248    0.0000 O.2     1  UNL1       -0.2456
      8 O           4.5446   -5.3248    0.0000 O.3     1  UNL1       -0.5033
      9 O           6.2766   -6.3248    0.0000 O.3     1  UNL1       -0.4915
     10 N           4.7419    3.5019    0.0000 N.3     1  UNL1       -0.3053
     11 C           4.5445    2.5735    0.0000 C.3     1  UNL1        0.0889
     12 C           5.3665    2.0989    0.0000 C.3     1  UNL1        0.0276
     13 C           3.7226    2.0989    0.0000 C.3     1  UNL1        0.2199
     14 C           4.3472    3.5019    0.0000 C.3     1  UNL1        0.0020
     15 C           5.3665    1.1498    0.0000 C.3     1  UNL1       -0.0013
     16 C           6.0719    2.7340    0.0000 C.3     1  UNL1       -0.0286
     17 C           3.4033    3.6011    0.0000 C.3     1  UNL1        0.0893
     18 C           3.7226    1.1498    0.0000 C.3     1  UNL1        0.1505
     19 C           5.2617    3.8601    0.0000 C.ar    1  UNL1        0.0116
     20 C           4.5445    0.6752    0.0000 C.3     1  UNL1        0.1353
     21 C           5.6858    3.6011    0.0000 C.3     1  UNL1       -0.0026
     22 C           4.4180    4.3241    0.0000 C.ar    1  UNL1       -0.0113
     23 C           6.0616    4.3582    0.0000 C.ar    1  UNL1        0.1626
     24 C           4.3983    5.2730    0.0000 C.ar    1  UNL1       -0.0522
     25 C           6.0419    5.3072    0.0000 C.ar    1  UNL1        0.1616
     26 C           2.0000    2.2800    0.0000 C.3     1  UNL1        0.0399
     27 C           5.2102    5.7646    0.0000 C.ar    1  UNL1       -0.0160
     28 C           2.8565   -0.3502    0.0000 C.3     1  UNL1        0.0372
     29 C           5.4106   -0.8248    0.0000 C.2     1  UNL1        0.3323
     30 C           5.4106   -1.8248    0.0000 C.2     1  UNL1        0.0231
     31 C           6.8766    6.8248    0.0000 C.3     1  UNL1        0.0790
     32 C           6.2766   -2.3248    0.0000 C.2     1  UNL1       -0.0477
     33 C           6.2766   -3.3248    0.0000 C.ar    1  UNL1       -0.0211
     34 C           5.4106   -3.8248    0.0000 C.ar    1  UNL1       -0.0094
     35 C           7.1426   -3.8248    0.0000 C.ar    1  UNL1       -0.0509
     36 C           5.4106   -4.8248    0.0000 C.ar    1  UNL1        0.1590
     37 C           7.1426   -4.8248    0.0000 C.ar    1  UNL1       -0.0158
     38 C           6.2766   -5.3248    0.0000 C.ar    1  UNL1        0.1613
     39 C           7.1426   -6.8248    0.0000 C.3     1  UNL1        0.0790
     40 H           4.9638    3.5667    0.0000 H       1  UNL1        0.0313
     41 H           4.3472    4.1219    0.0000 H       1  UNL1        0.0313
     42 H           5.5786    0.5671    0.0000 H       1  UNL1        0.0311
     43 H           5.9771    1.2574    0.0000 H       1  UNL1        0.0311
     44 H           6.4363    2.2324    0.0000 H       1  UNL1        0.0287
     45 H           6.6088    3.0440    0.0000 H       1  UNL1        0.0287
     46 H           2.7452    4.1390    0.0000 H       1  UNL1        0.0648
     47 H           3.7226    0.5298    0.0000 H       1  UNL1        0.0688
     48 H           4.2811    3.9167    0.0000 H       1  UNL1        0.1226
     49 H           5.0815    0.3652    0.0000 H       1  UNL1        0.0762
     50 H           6.2755    3.7927    0.0000 H       1  UNL1        0.0424
     51 H           5.5569    4.2075    0.0000 H       1  UNL1        0.0424
     52 H           3.8550    5.5718    0.0000 H       1  UNL1        0.0622
     53 H           2.3644    2.7815    0.0000 H       1  UNL1        0.0525
     54 H           1.4984    2.6444    0.0000 H       1  UNL1        0.0525
     55 H           1.6356    1.7784    0.0000 H       1  UNL1        0.0525
     56 H           5.1974    6.3844    0.0000 H       1  UNL1        0.0655
     57 H           2.2365   -0.3502    0.0000 H       1  UNL1        0.0524
     58 H           2.8565   -0.9702    0.0000 H       1  UNL1        0.0524
     59 H           3.4765   -0.3502    0.0000 H       1  UNL1        0.0524
     60 H           7.4701    4.2151    0.0000 H       1  UNL1        0.2923
     61 H           4.8736   -2.1348    0.0000 H       1  UNL1        0.0689
     62 H           7.4965    6.8377    0.0000 H       1  UNL1        0.0660
     63 H           6.8637    7.4447    0.0000 H       1  UNL1        0.0660
     64 H           6.2567    6.8119    0.0000 H       1  UNL1        0.0660
     65 H           6.8135   -2.0148    0.0000 H       1  UNL1        0.0626
     66 H           4.8736   -3.5148    0.0000 H       1  UNL1        0.0661
     67 H           7.6796   -3.5148    0.0000 H       1  UNL1        0.0625
     68 H           7.6796   -5.1348    0.0000 H       1  UNL1        0.0655
     69 H           4.5446   -5.9448    0.0000 H       1  UNL1        0.2923
     70 H           6.8326   -7.3618    0.0000 H       1  UNL1        0.0660
     71 H           7.6796   -7.1348    0.0000 H       1  UNL1        0.0660
     72 H           7.4526   -6.2879    0.0000 H       1  UNL1        0.0660
@<TRIPOS>BOND
     1     1    13    1
     2     1    17    1
     3    13     2    1
     4     2    26    1
     5     3    18    1
     6     3    28    1
     7    20     4    1
     8     4    29    1
     9     5    23    1
    10     5    60    1
    11     6    25    1
    12     6    31    1
    13     7    29    2
    14     8    36    1
    15     8    69    1
    16     9    38    1
    17     9    39    1
    18    11    10    1
    19    10    21    1
    20    10    48    1
    21    11    12    1
    22    11    13    1
    23    11    14    1
    24    12    15    1
    25    12    16    1
    26    12    19    1
    27    13    18    1
    28    14    17    1
    29    14    40    1
    30    14    41    1
    31    15    20    1
    32    15    42    1
    33    15    43    1
    34    16    21    1
    35    16    44    1
    36    16    45    1
    37    17    22    1
    38    17    46    1
    39    18    20    1
    40    18    47    1
    41    19    22   ar
    42    19    23   ar
    43    20    49    1
    44    21    50    1
    45    21    51    1
    46    22    24   ar
    47    23    25   ar
    48    24    27   ar
    49    24    52    1
    50    25    27   ar
    51    26    53    1
    52    26    54    1
    53    26    55    1
    54    27    56    1
    55    28    57    1
    56    28    58    1
    57    28    59    1
    58    29    30    1
    59    30    32    2
    60    30    61    1
    61    31    62    1
    62    31    63    1
    63    31    64    1
    64    32    33    1
    65    32    65    1
    66    33    34   ar
    67    33    35   ar
    68    34    36   ar
    69    34    66    1
    70    35    37   ar
    71    35    67    1
    72    36    38   ar
    73    37    38   ar
    74    37    68    1
    75    39    70    1
    76    39    71    1
    77    39    72    1
