@<TRIPOS>MOLECULE
IMPHY004020
 125 125 0 0 0
SMALL
GASTEIGER

@<TRIPOS>ATOM
      1 O           6.3301   -5.0950    0.0000 O.3     1  UNL1       -0.3405
      2 O           8.0622   -5.0950    0.0000 O.3     1  UNL1       -0.3468
      3 O           6.3301   -8.0950    0.0000 O.3     1  UNL1       -0.3864
      4 O           4.5981   -7.0950    0.0000 O.3     1  UNL1       -0.3865
      5 O           8.0622   -7.0950    0.0000 O.3     1  UNL1       -0.3841
      6 O           4.5981   -4.0950    0.0000 O.3     1  UNL1       -0.3924
      7 O           9.7942   -2.0950    0.0000 O.3     1  UNL1       -0.3859
      8 O          11.5263   -5.0950    0.0000 O.3     1  UNL1       -0.3826
      9 O          10.6603   -2.5950    0.0000 O.2     1  UNL1       -0.2730
     10 N           9.7942   -4.0950    0.0000 N.am    1  UNL1       -0.3053
     11 C           6.3301   -7.0950    0.0000 C.3     1  UNL1        0.1141
     12 C           5.4641   -6.5950    0.0000 C.3     1  UNL1        0.1119
     13 C           7.1962   -6.5950    0.0000 C.3     1  UNL1        0.1341
     14 C           5.4641   -5.5950    0.0000 C.3     1  UNL1        0.1130
     15 C           7.1962   -5.5950    0.0000 C.3     1  UNL1        0.1880
     16 C           4.5981   -5.0950    0.0000 C.3     1  UNL1        0.0730
     17 C           8.0622   -4.0950    0.0000 C.3     1  UNL1        0.0718
     18 C           8.9282   -3.5950    0.0000 C.3     1  UNL1        0.0760
     19 C           8.9282   -2.5950    0.0000 C.3     1  UNL1        0.0938
     20 C          14.9904   -4.0950    0.0000 C.3     1  UNL1       -0.0531
     21 C          14.1244   -3.5950    0.0000 C.3     1  UNL1       -0.0530
     22 C          15.8564   -3.5950    0.0000 C.3     1  UNL1       -0.0531
     23 C          13.2583   -4.0950    0.0000 C.3     1  UNL1       -0.0503
     24 C          16.7224   -4.0950    0.0000 C.3     1  UNL1       -0.0531
     25 C          12.3923   -3.5950    0.0000 C.3     1  UNL1       -0.0183
     26 C          17.5885   -3.5950    0.0000 C.3     1  UNL1       -0.0531
     27 C          11.5263   -4.0950    0.0000 C.3     1  UNL1        0.1309
     28 C          18.4545   -4.0950    0.0000 C.3     1  UNL1       -0.0531
     29 C          10.6603   -3.5950    0.0000 C.2     1  UNL1        0.2420
     30 C          19.3205   -3.5950    0.0000 C.3     1  UNL1       -0.0531
     31 C          20.1865   -4.0950    0.0000 C.3     1  UNL1       -0.0531
     32 C           8.0622   -2.0950    0.0000 C.2     1  UNL1       -0.0580
     33 C          21.0526   -3.5950    0.0000 C.3     1  UNL1       -0.0531
     34 C          21.9186   -4.0950    0.0000 C.3     1  UNL1       -0.0533
     35 C           8.0622   -1.0950    0.0000 C.2     1  UNL1       -0.0852
     36 C           7.1962   -0.5950    0.0000 C.3     1  UNL1       -0.0312
     37 C          22.7846   -3.5950    0.0000 C.3     1  UNL1       -0.0559
     38 C           4.5981    4.9050    0.0000 C.3     1  UNL1       -0.0530
     39 C           3.7320    5.4050    0.0000 C.3     1  UNL1       -0.0531
     40 C           4.5981    3.9050    0.0000 C.3     1  UNL1       -0.0528
     41 C           3.7320    6.4050    0.0000 C.3     1  UNL1       -0.0531
     42 C           7.1962    0.4050    0.0000 C.3     1  UNL1       -0.0313
     43 C           5.4641    3.4050    0.0000 C.3     1  UNL1       -0.0496
     44 C           2.8660    6.9050    0.0000 C.3     1  UNL1       -0.0533
     45 C           5.4641    2.4050    0.0000 C.3     1  UNL1       -0.0348
     46 C          23.6506   -4.0950    0.0000 C.3     1  UNL1       -0.0653
     47 C           6.3301    0.9050    0.0000 C.2     1  UNL1       -0.0876
     48 C           6.3301    1.9050    0.0000 C.2     1  UNL1       -0.0879
     49 C           2.8660    7.9050    0.0000 C.3     1  UNL1       -0.0559
     50 C           2.0000    8.4050    0.0000 C.3     1  UNL1       -0.0653
     51 H           6.8671   -7.4050    0.0000 H       1  UNL1        0.0648
     52 H           5.4641   -7.2150    0.0000 H       1  UNL1        0.0647
     53 H           7.7331   -6.2850    0.0000 H       1  UNL1        0.0671
     54 H           5.4641   -4.9750    0.0000 H       1  UNL1        0.0647
     55 H           7.1962   -4.9750    0.0000 H       1  UNL1        0.0937
     56 H           3.9875   -4.9873    0.0000 H       1  UNL1        0.0584
     57 H           4.3860   -5.6776    0.0000 H       1  UNL1        0.0584
     58 H           7.8501   -3.5124    0.0000 H       1  UNL1        0.0580
     59 H           7.4516   -4.2027    0.0000 H       1  UNL1        0.0580
     60 H           8.9282   -4.2150    0.0000 H       1  UNL1        0.0550
     61 H           5.7932   -8.4050    0.0000 H       1  UNL1        0.2100
     62 H           4.0611   -6.7850    0.0000 H       1  UNL1        0.2100
     63 H           8.5991   -6.7850    0.0000 H       1  UNL1        0.2101
     64 H           9.4651   -2.9050    0.0000 H       1  UNL1        0.0657
     65 H           9.7942   -4.7150    0.0000 H       1  UNL1        0.1492
     66 H          14.5919   -4.5700    0.0000 H       1  UNL1        0.0265
     67 H          15.3889   -4.5700    0.0000 H       1  UNL1        0.0265
     68 H          16.2549   -3.1200    0.0000 H       1  UNL1        0.0265
     69 H          15.4579   -3.1200    0.0000 H       1  UNL1        0.0265
     70 H          14.5229   -3.1200    0.0000 H       1  UNL1        0.0265
     71 H          13.7258   -3.1200    0.0000 H       1  UNL1        0.0265
     72 H          12.8598   -4.5700    0.0000 H       1  UNL1        0.0266
     73 H          13.6569   -4.5700    0.0000 H       1  UNL1        0.0266
     74 H          16.3239   -4.5700    0.0000 H       1  UNL1        0.0265
     75 H          17.1210   -4.5700    0.0000 H       1  UNL1        0.0265
     76 H          12.7908   -3.1200    0.0000 H       1  UNL1        0.0295
     77 H          11.9938   -3.1200    0.0000 H       1  UNL1        0.0295
     78 H          17.9870   -3.1200    0.0000 H       1  UNL1        0.0265
     79 H          17.1899   -3.1200    0.0000 H       1  UNL1        0.0265
     80 H          10.9893   -4.4050    0.0000 H       1  UNL1        0.0690
     81 H          18.0560   -4.5700    0.0000 H       1  UNL1        0.0265
     82 H          18.8530   -4.5700    0.0000 H       1  UNL1        0.0265
     83 H           4.0611   -3.7850    0.0000 H       1  UNL1        0.2095
     84 H          19.7190   -3.1200    0.0000 H       1  UNL1        0.0265
     85 H          18.9220   -3.1200    0.0000 H       1  UNL1        0.0265
     86 H          19.7880   -4.5700    0.0000 H       1  UNL1        0.0265
     87 H          20.5851   -4.5700    0.0000 H       1  UNL1        0.0265
     88 H           7.5252   -2.4050    0.0000 H       1  UNL1        0.0595
     89 H          21.4511   -3.1200    0.0000 H       1  UNL1        0.0265
     90 H          20.6540   -3.1200    0.0000 H       1  UNL1        0.0265
     91 H           9.7942   -1.4750    0.0000 H       1  UNL1        0.2103
     92 H          21.5201   -4.5700    0.0000 H       1  UNL1        0.0265
     93 H          22.3171   -4.5700    0.0000 H       1  UNL1        0.0265
     94 H           8.5991   -0.7850    0.0000 H       1  UNL1        0.0570
     95 H          12.0632   -5.4050    0.0000 H       1  UNL1        0.2104
     96 H           6.5856   -0.4873    0.0000 H       1  UNL1        0.0310
     97 H           6.9841   -1.1776    0.0000 H       1  UNL1        0.0310
     98 H          23.1831   -3.1200    0.0000 H       1  UNL1        0.0263
     99 H          22.3861   -3.1200    0.0000 H       1  UNL1        0.0263
    100 H           5.2087    4.7973    0.0000 H       1  UNL1        0.0265
    101 H           4.8101    5.4876    0.0000 H       1  UNL1        0.0265
    102 H           3.1215    5.5127    0.0000 H       1  UNL1        0.0265
    103 H           3.5200    4.8224    0.0000 H       1  UNL1        0.0265
    104 H           3.9875    4.0127    0.0000 H       1  UNL1        0.0265
    105 H           4.3860    3.3224    0.0000 H       1  UNL1        0.0265
    106 H           4.3426    6.2973    0.0000 H       1  UNL1        0.0265
    107 H           3.9441    6.9876    0.0000 H       1  UNL1        0.0265
    108 H           6.0747    3.2973    0.0000 H       1  UNL1        0.0268
    109 H           5.6762    3.9876    0.0000 H       1  UNL1        0.0268
    110 H           7.8067    0.2973    0.0000 H       1  UNL1        0.0310
    111 H           7.4082    0.9876    0.0000 H       1  UNL1        0.0310
    112 H           2.2554    7.0127    0.0000 H       1  UNL1        0.0265
    113 H           2.6540    6.3224    0.0000 H       1  UNL1        0.0265
    114 H           4.8535    2.5127    0.0000 H       1  UNL1        0.0307
    115 H           5.2520    1.8224    0.0000 H       1  UNL1        0.0307
    116 H          23.3406   -4.6319    0.0000 H       1  UNL1        0.0230
    117 H          24.1876   -4.4050    0.0000 H       1  UNL1        0.0230
    118 H          23.9606   -3.5581    0.0000 H       1  UNL1        0.0230
    119 H           5.7932    0.5950    0.0000 H       1  UNL1        0.0569
    120 H           3.4766    7.7973    0.0000 H       1  UNL1        0.0263
    121 H           3.0781    8.4876    0.0000 H       1  UNL1        0.0263
    122 H           6.8671    2.2150    0.0000 H       1  UNL1        0.0569
    123 H           2.3100    8.9419    0.0000 H       1  UNL1        0.0230
    124 H           1.4631    8.7150    0.0000 H       1  UNL1        0.0230
    125 H           1.6900    7.8681    0.0000 H       1  UNL1        0.0230
@<TRIPOS>BOND
     1     1    14    1
     2     1    15    1
     3    15     2    1
     4     2    17    1
     5    11     3    1
     6     3    61    1
     7    12     4    1
     8     4    62    1
     9    13     5    1
    10     5    63    1
    11     6    16    1
    12     6    83    1
    13    19     7    1
    14     7    91    1
    15    27     8    1
    16     8    95    1
    17     9    29    2
    18    18    10    1
    19    10    29   am
    20    10    65    1
    21    11    12    1
    22    11    13    1
    23    11    51    1
    24    12    14    1
    25    12    52    1
    26    13    15    1
    27    13    53    1
    28    14    16    1
    29    14    54    1
    30    15    55    1
    31    16    56    1
    32    16    57    1
    33    17    18    1
    34    17    58    1
    35    17    59    1
    36    18    19    1
    37    18    60    1
    38    19    32    1
    39    19    64    1
    40    20    21    1
    41    20    22    1
    42    20    66    1
    43    20    67    1
    44    21    23    1
    45    21    70    1
    46    21    71    1
    47    22    24    1
    48    22    68    1
    49    22    69    1
    50    23    25    1
    51    23    72    1
    52    23    73    1
    53    24    26    1
    54    24    74    1
    55    24    75    1
    56    25    27    1
    57    25    76    1
    58    25    77    1
    59    26    28    1
    60    26    78    1
    61    26    79    1
    62    27    29    1
    63    27    80    1
    64    28    30    1
    65    28    81    1
    66    28    82    1
    67    30    31    1
    68    30    84    1
    69    30    85    1
    70    31    33    1
    71    31    86    1
    72    31    87    1
    73    32    35    2
    74    32    88    1
    75    33    34    1
    76    33    89    1
    77    33    90    1
    78    34    37    1
    79    34    92    1
    80    34    93    1
    81    35    36    1
    82    35    94    1
    83    36    42    1
    84    36    96    1
    85    36    97    1
    86    37    46    1
    87    37    98    1
    88    37    99    1
    89    38    39    1
    90    38    40    1
    91    38   100    1
    92    38   101    1
    93    39    41    1
    94    39   102    1
    95    39   103    1
    96    40    43    1
    97    40   104    1
    98    40   105    1
    99    41    44    1
   100    41   106    1
   101    41   107    1
   102    42    47    1
   103    42   110    1
   104    42   111    1
   105    43    45    1
   106    43   108    1
   107    43   109    1
   108    44    49    1
   109    44   112    1
   110    44   113    1
   111    45    48    1
   112    45   114    1
   113    45   115    1
   114    46   116    1
   115    46   117    1
   116    46   118    1
   117    47    48    2
   118    47   119    1
   119    48   122    1
   120    49    50    1
   121    49   120    1
   122    49   121    1
   123    50   123    1
   124    50   124    1
   125    50   125    1
