@<TRIPOS>MOLECULE
IMPHY000884
 57 61 0 0 0
SMALL
GASTEIGER

@<TRIPOS>ATOM
      1 O           2.9766   -0.1046    0.0000 O.3     1  UNL1       -0.3417
      2 O           3.8136   -0.5803    0.0000 O.3     1  UNL1       -0.3850
      3 O           2.8817   -1.8784    0.0000 O.3     1  UNL1       -0.3639
      4 O           2.0637    2.6379    0.0000 O.3     1  UNL1       -0.3885
      5 O           7.0514   -3.1551    0.0000 O.3     1  UNL1       -0.3947
      6 C           4.5796    0.0625    0.0000 C.3     1  UNL1        0.1063
      7 C           4.3704   -0.9094    0.0000 C.3     1  UNL1        0.0562
      8 C           5.4456    0.5625    0.0000 C.3     1  UNL1       -0.0029
      9 C           5.4456    1.5625    0.0000 C.3     1  UNL1       -0.0184
     10 C           3.7136    0.5625    0.0000 C.3     1  UNL1        0.0972
     11 C           3.3817   -1.0124    0.0000 C.3     1  UNL1        0.1765
     12 C           4.5796    2.0625    0.0000 C.3     1  UNL1       -0.0271
     13 C           3.7136    1.5625    0.0000 C.3     1  UNL1        0.0200
     14 C           5.3553   -1.1245    0.0000 C.3     1  UNL1       -0.0230
     15 C           5.1570   -0.3208    0.0000 C.3     1  UNL1        0.0079
     16 C           5.9500   -0.3104    0.0000 C.3     1  UNL1       -0.0431
     17 C           2.9766    2.2295    0.0000 C.3     1  UNL1        0.0689
     18 C           4.3704    3.0343    0.0000 C.3     1  UNL1       -0.0467
     19 C           5.0383   -1.6537    0.0000 C.3     1  UNL1       -0.0516
     20 C           6.0711    2.3427    0.0000 C.3     1  UNL1       -0.0588
     21 C           3.3817    3.1373    0.0000 C.3     1  UNL1       -0.0236
     22 C           5.7099   -2.0595    0.0000 C.3     1  UNL1       -0.0171
     23 C           2.3062    1.4876    0.0000 C.3     1  UNL1       -0.0357
     24 C           6.6969   -2.2200    0.0000 C.3     1  UNL1        0.0470
     25 C           5.0774   -2.8341    0.0000 C.3     1  UNL1       -0.0601
     26 H           6.1818    0.9875    0.0000 H       1  UNL1        0.0335
     27 H           2.8765    0.7101    0.0000 H       1  UNL1        0.0630
     28 H           5.3157    2.4875    0.0000 H       1  UNL1        0.0311
     29 H           2.8765    1.4149    0.0000 H       1  UNL1        0.0357
     30 H           5.9698   -1.2075    0.0000 H       1  UNL1        0.0312
     31 H           5.2783   -0.9288    0.0000 H       1  UNL1        0.0323
     32 H           5.7768   -0.3069    0.0000 H       1  UNL1        0.0323
     33 H           6.3953   -0.7418    0.0000 H       1  UNL1        0.0272
     34 H           6.4389    0.0710    0.0000 H       1  UNL1        0.0272
     35 H           4.9869    3.1003    0.0000 H       1  UNL1        0.0269
     36 H           4.3695    3.6543    0.0000 H       1  UNL1        0.0269
     37 H           4.5768   -2.0677    0.0000 H       1  UNL1        0.0238
     38 H           5.4523   -2.1151    0.0000 H       1  UNL1        0.0238
     39 H           5.4997   -1.2396    0.0000 H       1  UNL1        0.0238
     40 H           6.5549    1.9550    0.0000 H       1  UNL1        0.0235
     41 H           6.4589    2.8265    0.0000 H       1  UNL1        0.0235
     42 H           5.5873    2.7305    0.0000 H       1  UNL1        0.0235
     43 H           3.5104    3.7438    0.0000 H       1  UNL1        0.0293
     44 H           2.7921    3.3291    0.0000 H       1  UNL1        0.0293
     45 H           5.0979   -1.9600    0.0000 H       1  UNL1        0.0323
     46 H           3.9213   -1.1909    0.0000 H       1  UNL1        0.2103
     47 H           2.2617   -1.8784    0.0000 H       1  UNL1        0.2128
     48 H           1.8461    1.9032    0.0000 H       1  UNL1        0.0257
     49 H           1.8905    1.0275    0.0000 H       1  UNL1        0.0257
     50 H           2.7662    1.0719    0.0000 H       1  UNL1        0.0257
     51 H           7.3060   -2.1042    0.0000 H       1  UNL1        0.0560
     52 H           6.6886   -1.6001    0.0000 H       1  UNL1        0.0560
     53 H           4.5971   -2.4419    0.0000 H       1  UNL1        0.0233
     54 H           4.6852   -3.3143    0.0000 H       1  UNL1        0.0233
     55 H           5.5576   -3.2262    0.0000 H       1  UNL1        0.0233
     56 H           2.0000    3.2546    0.0000 H       1  UNL1        0.2102
     57 H           7.6634   -3.2546    0.0000 H       1  UNL1        0.2094
@<TRIPOS>BOND
     1     1    10    1
     2     1    11    1
     3     6     2    1
     4     2    46    1
     5     3    11    1
     6     3    47    1
     7    17     4    1
     8     4    56    1
     9     5    24    1
    10     5    57    1
    11     6     7    1
    12     6     8    1
    13     6    10    1
    14     7    11    1
    15     7    14    1
    16     7    19    1
    17     8     9    1
    18     8    16    1
    19     8    26    1
    20     9    12    1
    21     9    15    1
    22     9    20    1
    23    10    13    1
    24    10    27    1
    25    11    15    1
    26    12    13    1
    27    12    18    1
    28    12    28    1
    29    13    17    1
    30    13    29    1
    31    14    16    1
    32    14    22    1
    33    14    30    1
    34    15    31    1
    35    15    32    1
    36    16    33    1
    37    16    34    1
    38    17    21    1
    39    17    23    1
    40    18    21    1
    41    18    35    1
    42    18    36    1
    43    19    37    1
    44    19    38    1
    45    19    39    1
    46    20    40    1
    47    20    41    1
    48    20    42    1
    49    21    43    1
    50    21    44    1
    51    22    24    1
    52    22    25    1
    53    22    45    1
    54    23    48    1
    55    23    49    1
    56    23    50    1
    57    24    51    1
    58    24    52    1
    59    25    53    1
    60    25    54    1
    61    25    55    1
