@<TRIPOS>MOLECULE
IMPHY000617
 35 37 0 0 0
SMALL
GASTEIGER

@<TRIPOS>ATOM
      1 O           4.6381   -1.0467    0.0000 O.2     1  UNL1       -0.4873
      2 O           8.2103   -0.8168    0.0000 O.2     1  UNL1       -0.4585
      3 O           6.3981    1.9879    0.0000 O.2     1  UNL1       -0.2867
      4 O           6.3981   -2.0121    0.0000 O.2     1  UNL1       -0.2800
      5 C           3.7320    0.5087    0.0000 C.3     1  UNL1       -0.0003
      6 C           2.8680    1.0121    0.0000 C.3     1  UNL1       -0.0405
      7 C           4.6381    1.0226    0.0000 C.3     1  UNL1       -0.0143
      8 C           3.7320   -0.5329    0.0000 C.3     1  UNL1        0.0931
      9 C           5.5320    0.4879    0.0000 C.2     1  UNL1        0.0459
     10 C           5.5320   -0.5121    0.0000 C.2     1  UNL1        0.1775
     11 C           2.0000    0.5154    0.0000 C.3     1  UNL1       -0.0623
     12 C           2.8718    2.0121    0.0000 C.3     1  UNL1       -0.0623
     13 C           6.3981    0.9879    0.0000 C.2     1  UNL1        0.1968
     14 C           7.2641    0.4879    0.0000 C.ar    1  UNL1        0.0740
     15 C           6.3981   -1.0121    0.0000 C.2     1  UNL1        0.2631
     16 C           7.2641   -0.5121    0.0000 C.ar    1  UNL1        0.1888
     17 C           8.2103    0.7927    0.0000 C.ar    1  UNL1       -0.0012
     18 C           8.7939   -0.0121    0.0000 C.ar    1  UNL1        0.0963
     19 C           8.5210    1.7432    0.0000 C.3     1  UNL1       -0.0360
     20 H           3.7356    1.1287    0.0000 H       1  UNL1        0.0339
     21 H           2.3322    1.3242    0.0000 H       1  UNL1        0.0299
     22 H           5.0427    1.4924    0.0000 H       1  UNL1        0.0319
     23 H           4.2445    1.5016    0.0000 H       1  UNL1        0.0319
     24 H           3.1212   -0.4268    0.0000 H       1  UNL1        0.0699
     25 H           3.5230   -1.1166    0.0000 H       1  UNL1        0.0699
     26 H           1.6921    1.0536    0.0000 H       1  UNL1        0.0232
     27 H           1.4619    0.2075    0.0000 H       1  UNL1        0.0232
     28 H           2.3079   -0.0227    0.0000 H       1  UNL1        0.0232
     29 H           3.4918    2.0097    0.0000 H       1  UNL1        0.0232
     30 H           2.8742    2.6321    0.0000 H       1  UNL1        0.0232
     31 H           2.2518    2.0145    0.0000 H       1  UNL1        0.0232
     32 H           9.4139   -0.0121    0.0000 H       1  UNL1        0.1032
     33 H           9.1103    1.5506    0.0000 H       1  UNL1        0.0279
     34 H           8.7136    2.3325    0.0000 H       1  UNL1        0.0279
     35 H           7.9317    1.9358    0.0000 H       1  UNL1        0.0279
@<TRIPOS>BOND
     1     1     8    1
     2     1    10    1
     3     2    16   ar
     4     2    18   ar
     5     3    13    2
     6     4    15    2
     7     5     6    1
     8     5     7    1
     9     5     8    1
    10     5    20    1
    11     6    11    1
    12     6    12    1
    13     6    21    1
    14     7     9    1
    15     7    22    1
    16     7    23    1
    17     8    24    1
    18     8    25    1
    19     9    10    2
    20     9    13    1
    21    10    15    1
    22    11    26    1
    23    11    27    1
    24    11    28    1
    25    12    29    1
    26    12    30    1
    27    12    31    1
    28    13    14    1
    29    14    16   ar
    30    14    17   ar
    31    15    16    1
    32    17    18   ar
    33    17    19    1
    34    18    32    1
    35    19    33    1
    36    19    34    1
    37    19    35    1
