@<TRIPOS>MOLECULE
IMPHY013427
 57 60 0 0 0
SMALL
GASTEIGER

@<TRIPOS>ATOM
      1 O           4.2690   -1.8625    0.0000 O.3     1  UNL1       -0.3339
      2 O           6.0010   -1.8625    0.0000 O.3     1  UNL1       -0.4569
      3 O           4.2690   -4.8625    0.0000 O.3     1  UNL1       -0.3864
      4 O           2.5369   -3.8625    0.0000 O.3     1  UNL1       -0.3866
      5 O           6.0010   -3.8625    0.0000 O.3     1  UNL1       -0.3829
      6 O           7.7771    1.1443    0.0000 O.2     1  UNL1       -0.4544
      7 O           4.2690   -0.8625    0.0000 O.3     1  UNL1       -0.4885
      8 O           4.2690    1.1375    0.0000 O.3     1  UNL1       -0.5027
      9 O           5.1132    2.6689    0.0000 O.2     1  UNL1       -0.2869
     10 O          11.2569    4.1725    0.0000 O.3     1  UNL1       -0.4951
     11 C           4.2690   -3.8625    0.0000 C.3     1  UNL1        0.1151
     12 C           3.4030   -3.3625    0.0000 C.3     1  UNL1        0.1096
     13 C           5.1350   -3.3625    0.0000 C.3     1  UNL1        0.1454
     14 C           3.4030   -2.3625    0.0000 C.3     1  UNL1        0.0883
     15 C           5.1350   -2.3625    0.0000 C.3     1  UNL1        0.2309
     16 C           2.5369   -1.8625    0.0000 C.3     1  UNL1       -0.0360
     17 C           6.0010   -0.8625    0.0000 C.ar    1  UNL1        0.1726
     18 C           5.1350   -0.3625    0.0000 C.ar    1  UNL1        0.2044
     19 C           6.8671   -0.3625    0.0000 C.ar    1  UNL1        0.0271
     20 C           6.8671    0.6375    0.0000 C.ar    1  UNL1        0.1465
     21 C           6.0010    1.1375    0.0000 C.ar    1  UNL1        0.1091
     22 C           5.1350    0.6375    0.0000 C.ar    1  UNL1        0.1768
     23 C           5.9850    2.1790    0.0000 C.ar    1  UNL1        0.1967
     24 C           7.7851    2.1859    0.0000 C.ar    1  UNL1        0.1392
     25 C           6.8830    2.7067    0.0000 C.ar    1  UNL1        0.0288
     26 C           8.6530    2.6826    0.0000 C.ar    1  UNL1        0.0176
     27 C           3.4030   -0.3625    0.0000 C.3     1  UNL1        0.0791
     28 C           8.6569    3.6826    0.0000 C.ar    1  UNL1       -0.0476
     29 C           9.5171    2.1792    0.0000 C.ar    1  UNL1       -0.0476
     30 C           9.5248    4.1792    0.0000 C.ar    1  UNL1       -0.0193
     31 C          10.3851    2.6759    0.0000 C.ar    1  UNL1       -0.0193
     32 C          10.3889    3.6759    0.0000 C.ar    1  UNL1        0.1201
     33 C          11.2607    5.1725    0.0000 C.3     1  UNL1        0.0788
     34 H           3.7320   -4.1725    0.0000 H       1  UNL1        0.0648
     35 H           3.4030   -3.9825    0.0000 H       1  UNL1        0.0646
     36 H           5.1350   -3.9825    0.0000 H       1  UNL1        0.0683
     37 H           3.4030   -1.7425    0.0000 H       1  UNL1        0.0621
     38 H           5.1350   -1.7425    0.0000 H       1  UNL1        0.1084
     39 H           2.8469   -1.3256    0.0000 H       1  UNL1        0.0255
     40 H           2.0000   -1.5525    0.0000 H       1  UNL1        0.0255
     41 H           2.2269   -2.3995    0.0000 H       1  UNL1        0.0255
     42 H           3.7320   -5.1725    0.0000 H       1  UNL1        0.2100
     43 H           2.0000   -3.5525    0.0000 H       1  UNL1        0.2100
     44 H           6.0010   -4.4825    0.0000 H       1  UNL1        0.2102
     45 H           7.4040   -0.6725    0.0000 H       1  UNL1        0.0692
     46 H           6.8806    3.3267    0.0000 H       1  UNL1        0.0693
     47 H           3.7320    0.8275    0.0000 H       1  UNL1        0.2923
     48 H           3.7130    0.1744    0.0000 H       1  UNL1        0.0660
     49 H           2.8660   -0.0525    0.0000 H       1  UNL1        0.0660
     50 H           3.0930   -0.8995    0.0000 H       1  UNL1        0.0660
     51 H           8.1212    3.9946    0.0000 H       1  UNL1        0.0626
     52 H           9.5147    1.5592    0.0000 H       1  UNL1        0.0626
     53 H           9.5272    4.7992    0.0000 H       1  UNL1        0.0654
     54 H          10.9208    2.3638    0.0000 H       1  UNL1        0.0654
     55 H          11.8807    5.1701    0.0000 H       1  UNL1        0.0660
     56 H          11.2631    5.7925    0.0000 H       1  UNL1        0.0660
     57 H          10.6407    5.1749    0.0000 H       1  UNL1        0.0660
@<TRIPOS>BOND
     1     1    14    1
     2     1    15    1
     3    15     2    1
     4     2    17    1
     5    11     3    1
     6     3    42    1
     7    12     4    1
     8     4    43    1
     9     5    13    1
    10     5    44    1
    11     6    20   ar
    12     6    24   ar
    13     7    18    1
    14     7    27    1
    15     8    22    1
    16     8    47    1
    17     9    23    2
    18    10    32    1
    19    10    33    1
    20    11    12    1
    21    11    13    1
    22    11    34    1
    23    12    14    1
    24    12    35    1
    25    13    15    1
    26    13    36    1
    27    14    16    1
    28    14    37    1
    29    15    38    1
    30    16    39    1
    31    16    40    1
    32    16    41    1
    33    17    18   ar
    34    17    19   ar
    35    18    22   ar
    36    19    20   ar
    37    19    45    1
    38    20    21   ar
    39    21    22   ar
    40    21    23   ar
    41    23    25   ar
    42    24    25   ar
    43    24    26    1
    44    25    46    1
    45    26    28   ar
    46    26    29   ar
    47    27    48    1
    48    27    49    1
    49    27    50    1
    50    28    30   ar
    51    28    51    1
    52    29    31   ar
    53    29    52    1
    54    30    32   ar
    55    30    53    1
    56    31    32   ar
    57    31    54    1
    58    33    55    1
    59    33    56    1
    60    33    57    1
