@<TRIPOS>MOLECULE
IMPHY007946
 88 91 0 0 0
SMALL
GASTEIGER

@<TRIPOS>ATOM
      1 O           8.0622    3.0000    0.0000 O.3     1  UNL1       -0.3829
      2 O           6.3301    1.0000    0.0000 O.2     1  UNL1       -0.4699
      3 O           7.1962   -0.5000    0.0000 O.3     1  UNL1       -0.3082
      4 O           9.3191   -0.2553    0.0000 O.3     1  UNL1       -0.3875
      5 O          10.5920    1.5000    0.0000 O.3     1  UNL1       -0.4555
      6 O           5.4641   -0.5000    0.0000 O.3     1  UNL1       -0.3371
      7 O           7.1962   -2.5000    0.0000 O.3     1  UNL1       -0.4525
      8 O           6.3301    4.0000    0.0000 O.3     1  UNL1       -0.4645
      9 O           5.4641   -3.5000    0.0000 O.3     1  UNL1       -0.4537
     10 O           3.7320   -2.5000    0.0000 O.3     1  UNL1       -0.4549
     11 O           8.0622    4.0000    0.0000 O.2     1  UNL1       -0.2451
     12 O           3.7320    0.5000    0.0000 O.3     1  UNL1       -0.4621
     13 O          10.5920    3.2320    0.0000 O.2     1  UNL1       -0.2456
     14 O           6.3301   -4.0000    0.0000 O.2     1  UNL1       -0.2512
     15 O           3.7320   -3.5000    0.0000 O.2     1  UNL1       -0.2512
     16 O           2.8660   -1.0000    0.0000 O.2     1  UNL1       -0.2512
     17 O           2.0000    0.5000    0.0000 O.2     1  UNL1       -0.2512
     18 C           8.0622    1.0000    0.0000 C.3     1  UNL1        0.0842
     19 C           8.0622    2.0000    0.0000 C.3     1  UNL1        0.1149
     20 C           9.0084    0.6953    0.0000 C.3     1  UNL1        0.1036
     21 C           9.0084    2.3047    0.0000 C.3     1  UNL1        0.0208
     22 C           9.5920    1.5000    0.0000 C.3     1  UNL1        0.1326
     23 C           7.1962    0.5000    0.0000 C.3     1  UNL1        0.2118
     24 C           7.1962    2.5000    0.0000 C.2     1  UNL1        0.1025
     25 C           6.3301    2.0000    0.0000 C.2     1  UNL1        0.1006
     26 C           6.3301   -1.0000    0.0000 C.3     1  UNL1        0.2041
     27 C           6.3301   -2.0000    0.0000 C.3     1  UNL1        0.1937
     28 C           7.1962    3.5000    0.0000 C.2     1  UNL1        0.3406
     29 C           5.4641   -2.5000    0.0000 C.3     1  UNL1        0.1836
     30 C           4.5981   -2.0000    0.0000 C.3     1  UNL1        0.1726
     31 C           4.5981   -1.0000    0.0000 C.3     1  UNL1        0.1361
     32 C          11.0920    2.3660    0.0000 C.2     1  UNL1        0.3323
     33 C           3.7320   -0.5000    0.0000 C.3     1  UNL1        0.1222
     34 C          12.0920    2.3660    0.0000 C.2     1  UNL1        0.0231
     35 C           7.1962   -3.5000    0.0000 C.2     1  UNL1        0.3045
     36 C           6.3301    5.0000    0.0000 C.3     1  UNL1        0.0820
     37 C           4.5981   -4.0000    0.0000 C.2     1  UNL1        0.3044
     38 C           2.8660   -2.0000    0.0000 C.2     1  UNL1        0.3044
     39 C          12.5920    3.2320    0.0000 C.2     1  UNL1       -0.0478
     40 C           8.0622   -4.0000    0.0000 C.3     1  UNL1        0.0332
     41 C           4.5981   -5.0000    0.0000 C.3     1  UNL1        0.0332
     42 C           2.8660    1.0000    0.0000 C.2     1  UNL1        0.3040
     43 C           2.0000   -2.5000    0.0000 C.3     1  UNL1        0.0332
     44 C          13.5920    3.2320    0.0000 C.ar    1  UNL1       -0.0248
     45 C           2.8660    2.0000    0.0000 C.3     1  UNL1        0.0332
     46 C          14.0920    2.3660    0.0000 C.ar    1  UNL1       -0.0546
     47 C          14.0920    4.0981    0.0000 C.ar    1  UNL1       -0.0546
     48 C          15.0920    2.3660    0.0000 C.ar    1  UNL1       -0.0612
     49 C          15.0920    4.0981    0.0000 C.ar    1  UNL1       -0.0612
     50 C          15.5920    3.2320    0.0000 C.ar    1  UNL1       -0.0617
     51 H           8.1521    0.1548    0.0000 H       1  UNL1        0.0420
     52 H           9.6209    0.5991    0.0000 H       1  UNL1        0.0636
     53 H           9.5458    2.6140    0.0000 H       1  UNL1        0.0333
     54 H           8.7574    2.8716    0.0000 H       1  UNL1        0.0333
     55 H           9.8737    0.9477    0.0000 H       1  UNL1        0.0761
     56 H           7.7331    0.1900    0.0000 H       1  UNL1        0.1061
     57 H           8.5991    3.3100    0.0000 H       1  UNL1        0.2106
     58 H           5.7932    2.3100    0.0000 H       1  UNL1        0.1030
     59 H           6.3301   -0.3800    0.0000 H       1  UNL1        0.0951
     60 H           9.9257   -0.3831    0.0000 H       1  UNL1        0.2100
     61 H           6.3301   -2.6200    0.0000 H       1  UNL1        0.0825
     62 H           4.9272   -2.8100    0.0000 H       1  UNL1        0.0812
     63 H           4.0611   -1.6900    0.0000 H       1  UNL1        0.0801
     64 H           4.5981   -0.3800    0.0000 H       1  UNL1        0.0670
     65 H           3.1215   -0.3923    0.0000 H       1  UNL1        0.0725
     66 H           3.5200   -1.0826    0.0000 H       1  UNL1        0.0725
     67 H          12.4020    1.8291    0.0000 H       1  UNL1        0.0689
     68 H           6.9501    5.0000    0.0000 H       1  UNL1        0.0661
     69 H           6.3301    5.6200    0.0000 H       1  UNL1        0.0661
     70 H           5.7101    5.0000    0.0000 H       1  UNL1        0.0661
     71 H          12.2820    3.7690    0.0000 H       1  UNL1        0.0626
     72 H           7.7522   -4.5369    0.0000 H       1  UNL1        0.0342
     73 H           8.5991   -4.3100    0.0000 H       1  UNL1        0.0342
     74 H           8.3722   -3.4631    0.0000 H       1  UNL1        0.0342
     75 H           3.9781   -5.0000    0.0000 H       1  UNL1        0.0342
     76 H           4.5981   -5.6200    0.0000 H       1  UNL1        0.0342
     77 H           5.2181   -5.0000    0.0000 H       1  UNL1        0.0342
     78 H           1.6900   -1.9631    0.0000 H       1  UNL1        0.0342
     79 H           1.4631   -2.8100    0.0000 H       1  UNL1        0.0342
     80 H           2.3100   -3.0369    0.0000 H       1  UNL1        0.0342
     81 H           3.4860    2.0000    0.0000 H       1  UNL1        0.0342
     82 H           2.8660    2.6200    0.0000 H       1  UNL1        0.0342
     83 H           2.2460    2.0000    0.0000 H       1  UNL1        0.0342
     84 H          13.7820    1.8291    0.0000 H       1  UNL1        0.0623
     85 H          13.7820    4.6350    0.0000 H       1  UNL1        0.0623
     86 H          15.4020    1.8291    0.0000 H       1  UNL1        0.0618
     87 H          15.4020    4.6350    0.0000 H       1  UNL1        0.0618
     88 H          16.2120    3.2320    0.0000 H       1  UNL1        0.0618
@<TRIPOS>BOND
     1    19     1    1
     2     1    57    1
     3     2    23    1
     4     2    25    1
     5    23     3    1
     6    26     3    1
     7    20     4    1
     8     4    60    1
     9    22     5    1
    10     5    32    1
    11     6    26    1
    12     6    31    1
    13    27     7    1
    14     7    35    1
    15     8    28    1
    16     8    36    1
    17    29     9    1
    18     9    37    1
    19    30    10    1
    20    10    38    1
    21    11    28    2
    22    12    33    1
    23    12    42    1
    24    13    32    2
    25    14    35    2
    26    15    37    2
    27    16    38    2
    28    17    42    2
    29    18    19    1
    30    18    20    1
    31    18    23    1
    32    18    51    1
    33    19    21    1
    34    19    24    1
    35    20    22    1
    36    20    52    1
    37    21    22    1
    38    21    53    1
    39    21    54    1
    40    22    55    1
    41    23    56    1
    42    24    25    2
    43    24    28    1
    44    25    58    1
    45    26    27    1
    46    26    59    1
    47    27    29    1
    48    27    61    1
    49    29    30    1
    50    29    62    1
    51    30    31    1
    52    30    63    1
    53    31    33    1
    54    31    64    1
    55    32    34    1
    56    33    65    1
    57    33    66    1
    58    34    39    2
    59    34    67    1
    60    35    40    1
    61    36    68    1
    62    36    69    1
    63    36    70    1
    64    37    41    1
    65    38    43    1
    66    39    44    1
    67    39    71    1
    68    40    72    1
    69    40    73    1
    70    40    74    1
    71    41    75    1
    72    41    76    1
    73    41    77    1
    74    42    45    1
    75    43    78    1
    76    43    79    1
    77    43    80    1
    78    44    46   ar
    79    44    47   ar
    80    45    81    1
    81    45    82    1
    82    45    83    1
    83    46    48   ar
    84    46    84    1
    85    47    49   ar
    86    47    85    1
    87    48    50   ar
    88    48    86    1
    89    49    50   ar
    90    49    87    1
    91    50    88    1
