@<TRIPOS>MOLECULE
IMPHY015936
 40 42 0 0 0
SMALL
GASTEIGER

@<TRIPOS>ATOM
      1 O           2.8037    1.7681    0.0000 O.3     1  UNL1       -0.3909
      2 C           3.8915   -0.5798    0.0000 C.3     1  UNL1       -0.0087
      3 C           4.7005    0.0080    0.0000 C.3     1  UNL1       -0.0290
      4 C           3.0825    0.0080    0.0000 C.3     1  UNL1        0.0185
      5 C           3.5819   -1.5244    0.0000 C.3     1  UNL1       -0.0162
      6 C           4.2012   -1.5244    0.0000 C.3     1  UNL1       -0.0455
      7 C           5.5032   -0.5784    0.0000 C.3     1  UNL1       -0.0404
      8 C           3.3915    0.9590    0.0000 C.3     1  UNL1        0.0648
      9 C           4.3915    0.9590    0.0000 C.3     1  UNL1       -0.0224
     10 C           5.1952   -1.5236    0.0000 C.3     1  UNL1       -0.0496
     11 C           2.2798   -0.5784    0.0000 C.2     1  UNL1       -0.0759
     12 C           2.5878   -1.5236    0.0000 C.2     1  UNL1       -0.0725
     13 C           2.2735    0.5958    0.0000 C.3     1  UNL1       -0.0532
     14 C           4.1682   -2.3345    0.0000 C.3     1  UNL1       -0.0582
     15 C           6.4548   -0.2710    0.0000 C.3     1  UNL1       -0.0621
     16 C           2.0000   -2.3326    0.0000 C.3     1  UNL1       -0.0435
     17 H           5.3888    0.5067    0.0000 H       1  UNL1        0.0310
     18 H           3.2997   -2.0765    0.0000 H       1  UNL1        0.0349
     19 H           3.5950   -1.6546    0.0000 H       1  UNL1        0.0271
     20 H           4.2668   -2.1409    0.0000 H       1  UNL1        0.0271
     21 H           5.6015    0.0338    0.0000 H       1  UNL1        0.0301
     22 H           2.7791    0.8621    0.0000 H       1  UNL1        0.0602
     23 H           4.9980    1.0880    0.0000 H       1  UNL1        0.0293
     24 H           4.3267    1.5756    0.0000 H       1  UNL1        0.0293
     25 H           5.1306   -2.1402    0.0000 H       1  UNL1        0.0268
     26 H           5.8016   -1.6526    0.0000 H       1  UNL1        0.0268
     27 H           1.6898   -0.3878    0.0000 H       1  UNL1        0.0578
     28 H           2.6379    1.0974    0.0000 H       1  UNL1        0.0239
     29 H           1.7719    0.9602    0.0000 H       1  UNL1        0.0239
     30 H           1.9090    0.0942    0.0000 H       1  UNL1        0.0239
     31 H           3.6660   -2.6980    0.0000 H       1  UNL1        0.0236
     32 H           4.5318   -2.8367    0.0000 H       1  UNL1        0.0236
     33 H           4.6705   -1.9709    0.0000 H       1  UNL1        0.0236
     34 H           6.6454   -0.8610    0.0000 H       1  UNL1        0.0233
     35 H           7.0448   -0.0805    0.0000 H       1  UNL1        0.0233
     36 H           6.2642    0.3190    0.0000 H       1  UNL1        0.0233
     37 H           3.0559    2.3345    0.0000 H       1  UNL1        0.2098
     38 H           1.4984   -1.9682    0.0000 H       1  UNL1        0.0274
     39 H           1.6356   -2.8342    0.0000 H       1  UNL1        0.0274
     40 H           2.5016   -2.6970    0.0000 H       1  UNL1        0.0274
@<TRIPOS>BOND
     1     8     1    1
     2     1    37    1
     3     2     3    1
     4     2     4    1
     5     2     5    1
     6     2     6    1
     7     3     7    1
     8     3     9    1
     9     3    17    1
    10     4     8    1
    11     4    11    1
    12     4    13    1
    13     5    12    1
    14     5    14    1
    15     5    18    1
    16     6    10    1
    17     6    19    1
    18     6    20    1
    19     7    10    1
    20     7    15    1
    21     7    21    1
    22     8     9    1
    23     8    22    1
    24     9    23    1
    25     9    24    1
    26    10    25    1
    27    10    26    1
    28    11    12    2
    29    11    27    1
    30    12    16    1
    31    13    28    1
    32    13    29    1
    33    13    30    1
    34    14    31    1
    35    14    32    1
    36    14    33    1
    37    15    34    1
    38    15    35    1
    39    15    36    1
    40    16    38    1
    41    16    39    1
    42    16    40    1
