@<TRIPOS>MOLECULE
IMPHY006779
 108 111 0 0 0
SMALL
GASTEIGER

@<TRIPOS>ATOM
      1 O           7.2350   -2.0156    0.0000 O.3     1  UNL1       -0.3456
      2 O           5.5029   -2.0156    0.0000 O.3     1  UNL1       -0.3412
      3 O           5.5029   -5.0156    0.0000 O.3     1  UNL1       -0.3871
      4 O           3.7709   -4.0156    0.0000 O.3     1  UNL1       -0.3865
      5 O           2.9049   -2.5156    0.0000 O.3     1  UNL1       -0.3924
      6 O           4.6437    0.0319    0.0000 O.3     1  UNL1       -0.4806
      7 O           3.1338    0.8805    0.0000 O.2     1  UNL1       -0.2510
      8 O           6.3690   -5.5156    0.0000 O.2     1  UNL1       -0.2761
      9 N           7.2350   -4.0156    0.0000 N.am    1  UNL1       -0.3053
     10 C           7.2350    0.9844    0.0000 C.3     1  UNL1       -0.0221
     11 C           8.1010    0.4844    0.0000 C.3     1  UNL1       -0.0273
     12 C           8.1010   -0.5156    0.0000 C.3     1  UNL1       -0.0052
     13 C           7.2189    2.0259    0.0000 C.3     1  UNL1       -0.0145
     14 C           6.3690    0.4844    0.0000 C.3     1  UNL1       -0.0444
     15 C           7.2350   -1.0156    0.0000 C.3     1  UNL1        0.0671
     16 C           9.0110    0.9912    0.0000 C.3     1  UNL1       -0.0454
     17 C           6.3690   -0.5156    0.0000 C.3     1  UNL1       -0.0255
     18 C           6.3690    1.4844    0.0000 C.3     1  UNL1       -0.0587
     19 C           8.1170    2.5536    0.0000 C.2     1  UNL1       -0.0730
     20 C           9.0190    2.0328    0.0000 C.3     1  UNL1       -0.0314
     21 C           6.3472    2.5158    0.0000 C.3     1  UNL1       -0.0455
     22 C           9.1010   -0.5156    0.0000 C.3     1  UNL1       -0.0572
     23 C           8.6010   -1.3816    0.0000 C.3     1  UNL1       -0.0572
     24 C           6.3356    3.5158    0.0000 C.3     1  UNL1       -0.0454
     25 C           5.4639    4.0057    0.0000 C.3     1  UNL1       -0.0142
     26 C           4.6037    3.4957    0.0000 C.3     1  UNL1       -0.0183
     27 C           8.1131    3.5536    0.0000 C.2     1  UNL1       -0.0992
     28 C           3.7319    3.9857    0.0000 C.3     1  UNL1       -0.0110
     29 C           6.3690   -2.5156    0.0000 C.3     1  UNL1        0.1806
     30 C           5.4523    5.0056    0.0000 C.2     1  UNL1       -0.0729
     31 C           4.1137    2.6240    0.0000 C.3     1  UNL1       -0.0365
     32 C           5.1137    2.6356    0.0000 C.3     1  UNL1       -0.0585
     33 C           3.7204    4.9856    0.0000 C.3     1  UNL1       -0.0275
     34 C           6.3690   -3.5156    0.0000 C.3     1  UNL1        0.1023
     35 C           4.5806    5.4956    0.0000 C.2     1  UNL1       -0.0842
     36 C           2.8718    3.4757    0.0000 C.2     1  UNL1       -0.0758
     37 C           5.5029   -4.0156    0.0000 C.3     1  UNL1        0.1065
     38 C           6.3125    5.5156    0.0000 C.3     1  UNL1       -0.0435
     39 C           4.6237    1.7638    0.0000 C.3     1  UNL1        0.0453
     40 C           4.6369   -2.5156    0.0000 C.3     1  UNL1        0.1130
     41 C           4.6369   -3.5156    0.0000 C.3     1  UNL1        0.1112
     42 C           2.0000    3.9657    0.0000 C.3     1  UNL1       -0.0437
     43 C           3.7709   -2.0156    0.0000 C.3     1  UNL1        0.0730
     44 C           2.8833    2.4758    0.0000 C.2     1  UNL1       -0.0994
     45 C           4.1338    0.8921    0.0000 C.2     1  UNL1        0.3047
     46 C           7.2350   -5.0156    0.0000 C.2     1  UNL1        0.2104
     47 C           8.1010   -5.5156    0.0000 C.3     1  UNL1        0.0122
     48 H           8.8338    0.0537    0.0000 H       1  UNL1        0.0312
     49 H           7.2130    2.6458    0.0000 H       1  UNL1        0.0351
     50 H           6.1569    1.0670    0.0000 H       1  UNL1        0.0272
     51 H           5.7584    0.3767    0.0000 H       1  UNL1        0.0272
     52 H           7.7719   -1.3256    0.0000 H       1  UNL1        0.0602
     53 H           9.2156    0.4059    0.0000 H       1  UNL1        0.0271
     54 H           9.6227    1.0926    0.0000 H       1  UNL1        0.0271
     55 H           5.7584   -0.4080    0.0000 H       1  UNL1        0.0290
     56 H           6.1569   -1.0982    0.0000 H       1  UNL1        0.0290
     57 H           6.6790    2.0213    0.0000 H       1  UNL1        0.0235
     58 H           5.8320    1.7944    0.0000 H       1  UNL1        0.0235
     59 H           6.0590    0.9474    0.0000 H       1  UNL1        0.0235
     60 H           9.6291    1.9220    0.0000 H       1  UNL1        0.0310
     61 H           9.2326    2.6149    0.0000 H       1  UNL1        0.0310
     62 H           5.7354    2.6164    0.0000 H       1  UNL1        0.0271
     63 H           6.1419    1.9308    0.0000 H       1  UNL1        0.0271
     64 H           9.1010   -1.1356    0.0000 H       1  UNL1        0.0236
     65 H           9.7210   -0.5156    0.0000 H       1  UNL1        0.0236
     66 H           9.1010    0.1044    0.0000 H       1  UNL1        0.0236
     67 H           8.0641   -1.6916    0.0000 H       1  UNL1        0.0236
     68 H           8.9110   -1.9186    0.0000 H       1  UNL1        0.0236
     69 H           9.1380   -1.0716    0.0000 H       1  UNL1        0.0236
     70 H           6.9474    3.4152    0.0000 H       1  UNL1        0.0271
     71 H           6.5409    4.1008    0.0000 H       1  UNL1        0.0271
     72 H           5.9972    4.3219    0.0000 H       1  UNL1        0.0351
     73 H           8.6488    3.8657    0.0000 H       1  UNL1        0.0534
     74 H           7.5750    3.8616    0.0000 H       1  UNL1        0.0534
     75 H           3.1914    4.2895    0.0000 H       1  UNL1        0.0354
     76 H           6.3690   -1.8956    0.0000 H       1  UNL1        0.0930
     77 H           3.6342    3.0170    0.0000 H       1  UNL1        0.0276
     78 H           3.6434    2.2200    0.0000 H       1  UNL1        0.0276
     79 H           4.5804    2.3194    0.0000 H       1  UNL1        0.0235
     80 H           5.4298    2.1022    0.0000 H       1  UNL1        0.0235
     81 H           5.6470    2.9517    0.0000 H       1  UNL1        0.0235
     82 H           3.5016    5.5657    0.0000 H       1  UNL1        0.0313
     83 H           3.1111    4.8709    0.0000 H       1  UNL1        0.0313
     84 H           6.3690   -4.1356    0.0000 H       1  UNL1        0.0575
     85 H           4.5734    6.1156    0.0000 H       1  UNL1        0.0572
     86 H           4.9660   -4.3256    0.0000 H       1  UNL1        0.0640
     87 H           6.6287    4.9823    0.0000 H       1  UNL1        0.0274
     88 H           6.8458    5.8318    0.0000 H       1  UNL1        0.0274
     89 H           5.9963    6.0489    0.0000 H       1  UNL1        0.0274
     90 H           5.1032    1.3708    0.0000 H       1  UNL1        0.0378
     91 H           5.0940    2.1678    0.0000 H       1  UNL1        0.0378
     92 H           4.6369   -1.8956    0.0000 H       1  UNL1        0.0647
     93 H           4.1000   -3.2056    0.0000 H       1  UNL1        0.0646
     94 H           7.7719   -3.7056    0.0000 H       1  UNL1        0.1492
     95 H           2.3038    4.5061    0.0000 H       1  UNL1        0.0274
     96 H           1.4595    4.2694    0.0000 H       1  UNL1        0.0274
     97 H           1.6962    3.4252    0.0000 H       1  UNL1        0.0274
     98 H           4.1694   -1.5407    0.0000 H       1  UNL1        0.0584
     99 H           3.3724   -1.5407    0.0000 H       1  UNL1        0.0584
    100 H           2.3500    2.1596    0.0000 H       1  UNL1        0.0534
    101 H           3.4238    2.1720    0.0000 H       1  UNL1        0.0534
    102 H           4.9660   -5.3256    0.0000 H       1  UNL1        0.2100
    103 H           3.7709   -4.6356    0.0000 H       1  UNL1        0.2100
    104 H           2.3679   -2.2056    0.0000 H       1  UNL1        0.2095
    105 H           7.7910   -6.0526    0.0000 H       1  UNL1        0.0322
    106 H           8.6380   -5.8256    0.0000 H       1  UNL1        0.0322
    107 H           8.4110   -4.9787    0.0000 H       1  UNL1        0.0322
    108 H           4.3400   -0.5086    0.0000 H       1  UNL1        0.2951
@<TRIPOS>BOND
     1    15     1    1
     2    29     1    1
     3     2    29    1
     4     2    40    1
     5    37     3    1
     6     3   102    1
     7    41     4    1
     8     4   103    1
     9     5    43    1
    10     5   104    1
    11     6    45    1
    12     6   108    1
    13     7    45    2
    14     8    46    2
    15    34     9    1
    16     9    46   am
    17     9    94    1
    18    10    11    1
    19    10    13    1
    20    10    14    1
    21    10    18    1
    22    11    12    1
    23    11    16    1
    24    11    48    1
    25    12    15    1
    26    12    22    1
    27    12    23    1
    28    13    19    1
    29    13    21    1
    30    13    49    1
    31    14    17    1
    32    14    50    1
    33    14    51    1
    34    15    17    1
    35    15    52    1
    36    16    20    1
    37    16    53    1
    38    16    54    1
    39    17    55    1
    40    17    56    1
    41    18    57    1
    42    18    58    1
    43    18    59    1
    44    19    20    1
    45    19    27    2
    46    20    60    1
    47    20    61    1
    48    21    24    1
    49    21    62    1
    50    21    63    1
    51    22    64    1
    52    22    65    1
    53    22    66    1
    54    23    67    1
    55    23    68    1
    56    23    69    1
    57    25    24    1
    58    24    70    1
    59    24    71    1
    60    25    26    1
    61    25    30    1
    62    25    72    1
    63    26    28    1
    64    26    31    1
    65    26    32    1
    66    27    73    1
    67    27    74    1
    68    28    33    1
    69    28    36    1
    70    28    75    1
    71    29    34    1
    72    29    76    1
    73    30    35    2
    74    30    38    1
    75    31    39    1
    76    31    77    1
    77    31    78    1
    78    32    79    1
    79    32    80    1
    80    32    81    1
    81    33    35    1
    82    33    82    1
    83    33    83    1
    84    34    37    1
    85    34    84    1
    86    35    85    1
    87    36    42    1
    88    36    44    2
    89    37    41    1
    90    37    86    1
    91    38    87    1
    92    38    88    1
    93    38    89    1
    94    39    45    1
    95    39    90    1
    96    39    91    1
    97    40    41    1
    98    40    43    1
    99    40    92    1
   100    41    93    1
   101    42    95    1
   102    42    96    1
   103    42    97    1
   104    43    98    1
   105    43    99    1
   106    44   100    1
   107    44   101    1
   108    46    47    1
   109    47   105    1
   110    47   106    1
   111    47   107    1
