@<TRIPOS>MOLECULE
IMPHY017436
 33 33 0 0 0
SMALL
GASTEIGER

@<TRIPOS>ATOM
      1 O           5.5981   -2.8100    0.0000 O.2     1  UNL1       -0.2876
      2 O           5.5981    2.1900    0.0000 O.3     1  UNL1       -0.3880
      3 C           3.0000   -1.3100    0.0000 C.3     1  UNL1        0.0088
      4 C           3.8660   -0.8100    0.0000 C.2     1  UNL1       -0.0317
      5 C           3.0000   -2.3100    0.0000 C.2     1  UNL1       -0.0704
      6 C           2.0000   -1.3100    0.0000 C.3     1  UNL1       -0.0523
      7 C           2.5000   -0.4440    0.0000 C.3     1  UNL1       -0.0523
      8 C           4.7320   -1.3100    0.0000 C.2     1  UNL1        0.0002
      9 C           3.8660    0.1900    0.0000 C.2     1  UNL1       -0.0589
     10 C           3.8660   -2.8100    0.0000 C.2     1  UNL1       -0.0178
     11 C           4.7320   -2.3100    0.0000 C.2     1  UNL1        0.1819
     12 C           5.5981   -0.8100    0.0000 C.3     1  UNL1       -0.0358
     13 C           4.7320    0.6900    0.0000 C.2     1  UNL1       -0.0559
     14 C           4.7320    1.6900    0.0000 C.3     1  UNL1        0.0708
     15 C           3.8660    2.1900    0.0000 C.3     1  UNL1       -0.0353
     16 H           2.4631   -2.6200    0.0000 H       1  UNL1        0.0582
     17 H           2.0000   -0.6900    0.0000 H       1  UNL1        0.0241
     18 H           1.3800   -1.3100    0.0000 H       1  UNL1        0.0241
     19 H           2.0000   -1.9300    0.0000 H       1  UNL1        0.0241
     20 H           3.0369   -0.1340    0.0000 H       1  UNL1        0.0241
     21 H           2.1900    0.0930    0.0000 H       1  UNL1        0.0241
     22 H           1.9631   -0.7540    0.0000 H       1  UNL1        0.0241
     23 H           3.3291    0.5000    0.0000 H       1  UNL1        0.0618
     24 H           3.8660   -3.4300    0.0000 H       1  UNL1        0.0653
     25 H           5.9081   -1.3469    0.0000 H       1  UNL1        0.0279
     26 H           6.1350   -0.5000    0.0000 H       1  UNL1        0.0279
     27 H           5.2881   -0.2731    0.0000 H       1  UNL1        0.0279
     28 H           5.2690    0.3800    0.0000 H       1  UNL1        0.0597
     29 H           4.7320    2.3100    0.0000 H       1  UNL1        0.0635
     30 H           4.1760    2.7269    0.0000 H       1  UNL1        0.0258
     31 H           3.3291    2.5000    0.0000 H       1  UNL1        0.0258
     32 H           3.5560    1.6531    0.0000 H       1  UNL1        0.0258
     33 H           5.5981    2.8100    0.0000 H       1  UNL1        0.2102
@<TRIPOS>BOND
     1     1    11    2
     2     2    14    1
     3     2    33    1
     4     3     4    1
     5     3     5    1
     6     3     6    1
     7     3     7    1
     8     4     8    2
     9     4     9    1
    10     5    10    2
    11     5    16    1
    12     6    17    1
    13     6    18    1
    14     6    19    1
    15     7    20    1
    16     7    21    1
    17     7    22    1
    18     8    11    1
    19     8    12    1
    20     9    13    2
    21     9    23    1
    22    10    11    1
    23    10    24    1
    24    12    25    1
    25    12    26    1
    26    12    27    1
    27    13    14    1
    28    13    28    1
    29    14    15    1
    30    14    29    1
    31    15    30    1
    32    15    31    1
    33    15    32    1
