@<TRIPOS>MOLECULE
IMPHY014611
 146 152 0 0 0
SMALL
GASTEIGER

@<TRIPOS>ATOM
      1 O           6.0167    5.7118    0.0000 O.3     1  UNL1       -0.3909
      2 O           6.8671   -2.0117    0.0000 O.3     1  UNL1       -0.3448
      3 O           9.2738   -1.3418    0.0000 O.3     1  UNL1       -0.3481
      4 O           7.8378    7.4827    0.0000 O.3     1  UNL1       -0.3944
      5 O           5.1350   -2.0117    0.0000 O.3     1  UNL1       -0.3405
      6 O          10.7670   -0.4643    0.0000 O.3     1  UNL1       -0.3405
      7 O           6.8671   -4.0117    0.0000 O.3     1  UNL1       -0.3378
      8 O          10.2871   -3.0661    0.0000 O.3     1  UNL1       -0.3841
      9 O           5.1350   -5.0117    0.0000 O.3     1  UNL1       -0.3864
     10 O           3.4030   -4.0117    0.0000 O.3     1  UNL1       -0.3865
     11 O          12.2870   -3.0507    0.0000 O.3     1  UNL1       -0.3864
     12 O          13.2736   -1.3110    0.0000 O.3     1  UNL1       -0.3865
     13 O           6.0010   -5.5117    0.0000 O.3     1  UNL1       -0.3461
     14 O           2.5369   -2.5117    0.0000 O.3     1  UNL1       -0.3924
     15 O          12.3309    6.5820    0.0000 O.3     1  UNL1       -0.3907
     16 O          13.2603    0.4210    0.0000 O.3     1  UNL1       -0.3924
     17 O           8.5991   -5.0117    0.0000 O.3     1  UNL1       -0.3841
     18 O           8.5991   -7.0117    0.0000 O.3     1  UNL1       -0.3864
     19 O           6.8671   -8.0117    0.0000 O.3     1  UNL1       -0.3869
     20 C           7.7628    2.5542    0.0000 C.3     1  UNL1       -0.0230
     21 C           6.8948    2.0575    0.0000 C.3     1  UNL1       -0.0294
     22 C           7.7829    3.5956    0.0000 C.3     1  UNL1       -0.0212
     23 C           6.8910    1.0575    0.0000 C.3     1  UNL1       -0.0252
     24 C           7.7551    0.5542    0.0000 C.3     1  UNL1       -0.0255
     25 C           6.8869    4.1268    0.0000 C.3     1  UNL1       -0.0085
     26 C           8.6269    2.0508    0.0000 C.3     1  UNL1       -0.0466
     27 C           5.9868    2.5678    0.0000 C.3     1  UNL1       -0.0488
     28 C           8.6230    1.0508    0.0000 C.3     1  UNL1       -0.0485
     29 C           7.7671   -0.4874    0.0000 C.3     1  UNL1        0.0210
     30 C           5.9828    3.6095    0.0000 C.3     1  UNL1       -0.0470
     31 C           8.7368    4.1125    0.0000 C.3     1  UNL1       -0.0461
     32 C           5.9790    0.5542    0.0000 C.3     1  UNL1       -0.0447
     33 C           6.8827    5.2118    0.0000 C.3     1  UNL1        0.0663
     34 C           7.8244    5.7507    0.0000 C.3     1  UNL1        0.0203
     35 C           8.7483    2.7240    0.0000 C.3     1  UNL1       -0.0588
     36 C           8.7577    5.1973    0.0000 C.3     1  UNL1       -0.0424
     37 C           6.8671   -1.0117    0.0000 C.3     1  UNL1        0.0695
     38 C           8.7656    3.4106    0.0000 C.3     1  UNL1       -0.0587
     39 C           6.0269    1.5608    0.0000 C.3     1  UNL1       -0.0590
     40 C           5.9670   -0.4874    0.0000 C.3     1  UNL1       -0.0254
     41 C           8.7671   -0.4797    0.0000 C.3     1  UNL1        0.0588
     42 C           8.2738   -1.3495    0.0000 C.3     1  UNL1       -0.0548
     43 C           8.3311    6.6128    0.0000 C.3     1  UNL1       -0.0395
     44 C           7.3311    6.6205    0.0000 C.3     1  UNL1        0.0522
     45 C           9.3310    6.6051    0.0000 C.3     1  UNL1       -0.0338
     46 C           6.0010   -2.5117    0.0000 C.3     1  UNL1        0.1886
     47 C          10.2737   -1.3341    0.0000 C.3     1  UNL1        0.1879
     48 C           6.0010   -3.5117    0.0000 C.3     1  UNL1        0.1406
     49 C           9.8377    7.4672    0.0000 C.2     1  UNL1       -0.0829
     50 C          10.7804   -2.1963    0.0000 C.3     1  UNL1        0.1341
     51 C           5.1350   -4.0117    0.0000 C.3     1  UNL1        0.1144
     52 C           4.2690   -2.5117    0.0000 C.3     1  UNL1        0.1130
     53 C           4.2690   -3.5117    0.0000 C.3     1  UNL1        0.1119
     54 C          10.8377    7.4595    0.0000 C.2     1  UNL1       -0.0515
     55 C          11.7804   -2.1886    0.0000 C.3     1  UNL1        0.1141
     56 C          11.7670   -0.4566    0.0000 C.3     1  UNL1        0.1130
     57 C          12.2737   -1.3187    0.0000 C.3     1  UNL1        0.1119
     58 C           3.4030   -2.0117    0.0000 C.3     1  UNL1        0.0730
     59 C           6.8671   -5.0117    0.0000 C.3     1  UNL1        0.1881
     60 C          11.3310    6.5897    0.0000 C.3     1  UNL1        0.0650
     61 C          11.3443    8.3217    0.0000 C.3     1  UNL1       -0.0416
     62 C          12.2603    0.4133    0.0000 C.3     1  UNL1        0.0730
     63 C           7.7331   -5.5117    0.0000 C.3     1  UNL1        0.1341
     64 C           7.7331   -6.5117    0.0000 C.3     1  UNL1        0.1137
     65 C           6.0010   -6.5117    0.0000 C.3     1  UNL1        0.0792
     66 C           6.8671   -7.0117    0.0000 C.3     1  UNL1        0.1069
     67 H           7.6293    1.6297    0.0000 H       1  UNL1        0.0312
     68 H           8.4928    0.1320    0.0000 H       1  UNL1        0.0313
     69 H           6.1508    4.5518    0.0000 H       1  UNL1        0.0331
     70 H           9.2370    1.9408    0.0000 H       1  UNL1        0.0271
     71 H           8.8412    2.6326    0.0000 H       1  UNL1        0.0271
     72 H           5.3755    2.6716    0.0000 H       1  UNL1        0.0268
     73 H           5.7800    1.9834    0.0000 H       1  UNL1        0.0268
     74 H           8.8328    0.4674    0.0000 H       1  UNL1        0.0268
     75 H           9.2340    1.1561    0.0000 H       1  UNL1        0.0268
     76 H           5.7715    4.1924    0.0000 H       1  UNL1        0.0269
     77 H           5.3724    3.5010    0.0000 H       1  UNL1        0.0269
     78 H           8.9346    3.5249    0.0000 H       1  UNL1        0.0271
     79 H           9.3496    4.2068    0.0000 H       1  UNL1        0.0271
     80 H           5.7768    1.1402    0.0000 H       1  UNL1        0.0271
     81 H           5.3670    0.4551    0.0000 H       1  UNL1        0.0271
     82 H           6.3464    4.9008    0.0000 H       1  UNL1        0.0602
     83 H           8.8536    2.1130    0.0000 H       1  UNL1        0.0235
     84 H           9.3592    2.8293    0.0000 H       1  UNL1        0.0235
     85 H           8.6430    3.3350    0.0000 H       1  UNL1        0.0235
     86 H           9.3664    5.0795    0.0000 H       1  UNL1        0.0272
     87 H           8.9780    5.7769    0.0000 H       1  UNL1        0.0272
     88 H           7.4046   -1.3206    0.0000 H       1  UNL1        0.0603
     89 H           8.6509    2.8013    0.0000 H       1  UNL1        0.0235
     90 H           9.3749    3.2958    0.0000 H       1  UNL1        0.0235
     91 H           8.8803    4.0199    0.0000 H       1  UNL1        0.0235
     92 H           6.3390    2.0966    0.0000 H       1  UNL1        0.0235
     93 H           5.4912    1.8729    0.0000 H       1  UNL1        0.0235
     94 H           5.7148    1.0251    0.0000 H       1  UNL1        0.0235
     95 H           5.3574   -0.3742    0.0000 H       1  UNL1        0.0290
     96 H           5.7512   -1.0686    0.0000 H       1  UNL1        0.0290
     97 H           9.3480   -0.2631    0.0000 H       1  UNL1        0.0567
     98 H           8.6547    0.1300    0.0000 H       1  UNL1        0.0567
     99 H           7.7393   -1.6637    0.0000 H       1  UNL1        0.0237
    100 H           8.5879   -1.8841    0.0000 H       1  UNL1        0.0237
    101 H           8.8083   -1.0354    0.0000 H       1  UNL1        0.0237
    102 H           8.4434    7.2225    0.0000 H       1  UNL1        0.0275
    103 H           7.7501    6.8293    0.0000 H       1  UNL1        0.0275
    104 H           6.8592    7.0227    0.0000 H       1  UNL1        0.0563
    105 H           6.8531    6.2257    0.0000 H       1  UNL1        0.0563
    106 H           5.4797    5.4018    0.0000 H       1  UNL1        0.2098
    107 H           9.2187    5.9954    0.0000 H       1  UNL1        0.0308
    108 H           9.9120    6.3886    0.0000 H       1  UNL1        0.0308
    109 H           6.0010   -1.8917    0.0000 H       1  UNL1        0.0938
    110 H           7.5319    8.0220    0.0000 H       1  UNL1        0.2094
    111 H           9.9679   -1.8734    0.0000 H       1  UNL1        0.0937
    112 H           6.5380   -3.2017    0.0000 H       1  UNL1        0.0675
    113 H           9.5318    8.0066    0.0000 H       1  UNL1        0.0572
    114 H          11.0945   -2.7308    0.0000 H       1  UNL1        0.0671
    115 H           5.6720   -4.3217    0.0000 H       1  UNL1        0.0648
    116 H           4.2690   -1.8917    0.0000 H       1  UNL1        0.0647
    117 H           3.7320   -3.2017    0.0000 H       1  UNL1        0.0647
    118 H          12.4003   -2.1838    0.0000 H       1  UNL1        0.0648
    119 H          11.4529    0.0780    0.0000 H       1  UNL1        0.0647
    120 H          12.5878   -1.8532    0.0000 H       1  UNL1        0.0647
    121 H           3.8015   -1.5367    0.0000 H       1  UNL1        0.0584
    122 H           3.0044   -1.5367    0.0000 H       1  UNL1        0.0584
    123 H          10.6012   -3.6006    0.0000 H       1  UNL1        0.2101
    124 H           7.4040   -4.7017    0.0000 H       1  UNL1        0.0937
    125 H           4.5981   -5.3217    0.0000 H       1  UNL1        0.2100
    126 H          10.7467    6.3821    0.0000 H       1  UNL1        0.0604
    127 H          11.4339    5.9783    0.0000 H       1  UNL1        0.0604
    128 H          11.8789    8.0076    0.0000 H       1  UNL1        0.0275
    129 H          11.6585    8.8562    0.0000 H       1  UNL1        0.0275
    130 H          10.8098    8.6358    0.0000 H       1  UNL1        0.0275
    131 H           3.4030   -4.6317    0.0000 H       1  UNL1        0.2100
    132 H          12.3633    1.0247    0.0000 H       1  UNL1        0.0584
    133 H          11.6761    0.6209    0.0000 H       1  UNL1        0.0584
    134 H          12.9070   -3.0459    0.0000 H       1  UNL1        0.2100
    135 H           8.2700   -5.8217    0.0000 H       1  UNL1        0.0671
    136 H          13.5878   -1.8455    0.0000 H       1  UNL1        0.2100
    137 H           2.0000   -2.2017    0.0000 H       1  UNL1        0.2095
    138 H           7.7331   -7.1317    0.0000 H       1  UNL1        0.0647
    139 H          12.6368    6.0427    0.0000 H       1  UNL1        0.2098
    140 H           5.3905   -6.4040    0.0000 H       1  UNL1        0.0587
    141 H           5.7890   -7.0943    0.0000 H       1  UNL1        0.0587
    142 H           6.3301   -7.3217    0.0000 H       1  UNL1        0.0643
    143 H          13.5661    0.9603    0.0000 H       1  UNL1        0.2095
    144 H           9.1360   -5.3217    0.0000 H       1  UNL1        0.2101
    145 H           8.5991   -7.6317    0.0000 H       1  UNL1        0.2100
    146 H           6.3301   -8.3217    0.0000 H       1  UNL1        0.2100
@<TRIPOS>BOND
     1    33     1    1
     2     1   106    1
     3    37     2    1
     4    46     2    1
     5     3    41    1
     6    47     3    1
     7     4    44    1
     8     4   110    1
     9     5    46    1
    10     5    52    1
    11     6    47    1
    12     6    56    1
    13    48     7    1
    14    59     7    1
    15    50     8    1
    16     8   123    1
    17    51     9    1
    18     9   125    1
    19    53    10    1
    20    10   131    1
    21    55    11    1
    22    11   134    1
    23    57    12    1
    24    12   136    1
    25    13    59    1
    26    13    65    1
    27    14    58    1
    28    14   137    1
    29    15    60    1
    30    15   139    1
    31    16    62    1
    32    16   143    1
    33    63    17    1
    34    17   144    1
    35    64    18    1
    36    18   145    1
    37    66    19    1
    38    19   146    1
    39    20    21    1
    40    20    22    1
    41    20    26    1
    42    20    35    1
    43    21    23    1
    44    21    27    1
    45    21    67    1
    46    22    25    1
    47    22    31    1
    48    22    38    1
    49    23    24    1
    50    23    32    1
    51    23    39    1
    52    24    28    1
    53    24    29    1
    54    24    68    1
    55    25    30    1
    56    25    33    1
    57    25    69    1
    58    26    28    1
    59    26    70    1
    60    26    71    1
    61    27    30    1
    62    27    72    1
    63    27    73    1
    64    28    74    1
    65    28    75    1
    66    29    37    1
    67    29    41    1
    68    29    42    1
    69    30    76    1
    70    30    77    1
    71    31    36    1
    72    31    78    1
    73    31    79    1
    74    32    40    1
    75    32    80    1
    76    32    81    1
    77    33    34    1
    78    33    82    1
    79    34    36    1
    80    34    43    1
    81    34    44    1
    82    35    83    1
    83    35    84    1
    84    35    85    1
    85    36    86    1
    86    36    87    1
    87    37    40    1
    88    37    88    1
    89    38    89    1
    90    38    90    1
    91    38    91    1
    92    39    92    1
    93    39    93    1
    94    39    94    1
    95    40    95    1
    96    40    96    1
    97    41    97    1
    98    41    98    1
    99    42    99    1
   100    42   100    1
   101    42   101    1
   102    43    45    1
   103    43   102    1
   104    43   103    1
   105    44   104    1
   106    44   105    1
   107    45    49    1
   108    45   107    1
   109    45   108    1
   110    46    48    1
   111    46   109    1
   112    47    50    1
   113    47   111    1
   114    48    51    1
   115    48   112    1
   116    49    54    2
   117    49   113    1
   118    50    55    1
   119    50   114    1
   120    51    53    1
   121    51   115    1
   122    52    53    1
   123    52    58    1
   124    52   116    1
   125    53   117    1
   126    54    60    1
   127    54    61    1
   128    55    57    1
   129    55   118    1
   130    56    57    1
   131    56    62    1
   132    56   119    1
   133    57   120    1
   134    58   121    1
   135    58   122    1
   136    59    63    1
   137    59   124    1
   138    60   126    1
   139    60   127    1
   140    61   128    1
   141    61   129    1
   142    61   130    1
   143    62   132    1
   144    62   133    1
   145    63    64    1
   146    63   135    1
   147    64    66    1
   148    64   138    1
   149    65    66    1
   150    65   140    1
   151    65   141    1
   152    66   142    1
