@<TRIPOS>MOLECULE
IMPHY002090
 77 80 0 0 0
SMALL
GASTEIGER

@<TRIPOS>ATOM
      1 O           7.1542   -3.1184    0.0000 O.3     1  UNL1       -0.3674
      2 O           5.9058   -3.2870    0.0000 O.3     1  UNL1       -0.4607
      3 O           7.6542    0.7476    0.0000 O.3     1  UNL1       -0.4612
      4 O           7.6542   -3.2524    0.0000 O.3     1  UNL1       -0.4640
      5 O           3.7022    0.9745    0.0000 O.3     1  UNL1       -0.4569
      6 O           4.1739   -3.3070    0.0000 O.2     1  UNL1       -0.2512
      7 O           9.3862    0.7476    0.0000 O.2     1  UNL1       -0.2512
      8 O           5.6068    3.7081    0.0000 O.3     1  UNL1       -0.4570
      9 O           6.7882   -4.7524    0.0000 O.2     1  UNL1       -0.2512
     10 O           2.0000    1.2950    0.0000 O.2     1  UNL1       -0.2511
     11 O           4.1962    4.7969    0.0000 O.2     1  UNL1       -0.2456
     12 C           6.7882   -1.7524    0.0000 C.3     1  UNL1        0.0794
     13 C           7.6542   -2.2524    0.0000 C.3     1  UNL1        0.1054
     14 C           6.7882   -0.7524    0.0000 C.3     1  UNL1        0.0168
     15 C           5.8942   -0.2178    0.0000 C.3     1  UNL1       -0.0187
     16 C           5.8942   -2.2871    0.0000 C.3     1  UNL1        0.1151
     17 C           7.6542   -0.2524    0.0000 C.3     1  UNL1        0.1073
     18 C           4.9882   -0.7316    0.0000 C.3     1  UNL1       -0.0346
     19 C           8.5202   -1.7524    0.0000 C.3     1  UNL1       -0.0174
     20 C           8.1542   -3.1184    0.0000 C.3     1  UNL1        0.0783
     21 C           4.9882   -1.7732    0.0000 C.3     1  UNL1       -0.0118
     22 C           8.5202   -0.7524    0.0000 C.3     1  UNL1       -0.0127
     23 C           6.7882   -2.7524    0.0000 C.3     1  UNL1        0.1046
     24 C           5.4043    0.6540    0.0000 C.3     1  UNL1       -0.0055
     25 C           6.4042    0.6424    0.0000 C.3     1  UNL1       -0.0588
     26 C           4.0027   -0.9014    0.0000 C.3     1  UNL1       -0.0618
     27 C           4.6457    1.3056    0.0000 C.3     1  UNL1        0.1282
     28 C           4.8308    2.2883    0.0000 C.2     1  UNL1        0.0142
     29 C           5.0456   -3.7970    0.0000 C.2     1  UNL1        0.3042
     30 C           8.5202    1.2476    0.0000 C.2     1  UNL1        0.3042
     31 C           7.6542   -4.2524    0.0000 C.2     1  UNL1        0.3040
     32 C           5.7345    2.7163    0.0000 C.3     1  UNL1        0.1178
     33 C           5.0572   -4.7969    0.0000 C.3     1  UNL1        0.0332
     34 C           4.1444    3.0157    0.0000 C.2     1  UNL1        0.0284
     35 C           8.5202    2.2476    0.0000 C.3     1  UNL1        0.0332
     36 C           8.5202   -4.7524    0.0000 C.3     1  UNL1        0.0332
     37 C           2.9436    1.6261    0.0000 C.2     1  UNL1        0.3045
     38 C           4.6241    3.8931    0.0000 C.2     1  UNL1        0.3324
     39 C           3.1286    2.6088    0.0000 C.3     1  UNL1        0.0333
     40 H           6.7947    0.0976    0.0000 H       1  UNL1        0.0350
     41 H           5.3603   -2.6022    0.0000 H       1  UNL1        0.0742
     42 H           8.1911    0.0576    0.0000 H       1  UNL1        0.0737
     43 H           4.7795   -0.1478    0.0000 H       1  UNL1        0.0305
     44 H           8.7323   -2.3350    0.0000 H       1  UNL1        0.0295
     45 H           9.1308   -1.6448    0.0000 H       1  UNL1        0.0295
     46 H           8.2619   -3.7290    0.0000 H       1  UNL1        0.0589
     47 H           8.7368   -2.9064    0.0000 H       1  UNL1        0.0589
     48 H           4.3773   -1.6671    0.0000 H       1  UNL1        0.0304
     49 H           4.7791   -2.3569    0.0000 H       1  UNL1        0.0304
     50 H           9.1308   -0.8601    0.0000 H       1  UNL1        0.0302
     51 H           8.7323   -0.1698    0.0000 H       1  UNL1        0.0302
     52 H           6.1776   -2.6448    0.0000 H       1  UNL1        0.0705
     53 H           6.5761   -3.3350    0.0000 H       1  UNL1        0.0705
     54 H           6.0209    0.7188    0.0000 H       1  UNL1        0.0310
     55 H           4.9248    0.2610    0.0000 H       1  UNL1        0.0310
     56 H           6.9375    0.3262    0.0000 H       1  UNL1        0.0235
     57 H           6.7204    1.1758    0.0000 H       1  UNL1        0.0235
     58 H           5.8709    0.9586    0.0000 H       1  UNL1        0.0235
     59 H           3.8974   -0.2905    0.0000 H       1  UNL1        0.0233
     60 H           3.3917   -1.0068    0.0000 H       1  UNL1        0.0233
     61 H           4.1080   -1.5124    0.0000 H       1  UNL1        0.0233
     62 H           4.5310    0.6963    0.0000 H       1  UNL1        0.0783
     63 H           5.9398    2.1313    0.0000 H       1  UNL1        0.0747
     64 H           6.3378    2.8593    0.0000 H       1  UNL1        0.0747
     65 H           4.4372   -4.8041    0.0000 H       1  UNL1        0.0342
     66 H           5.0644   -5.4169    0.0000 H       1  UNL1        0.0342
     67 H           5.6771   -4.7898    0.0000 H       1  UNL1        0.0342
     68 H           3.5295    2.9365    0.0000 H       1  UNL1        0.0691
     69 H           9.1402    2.2476    0.0000 H       1  UNL1        0.0342
     70 H           8.5202    2.8676    0.0000 H       1  UNL1        0.0342
     71 H           7.9002    2.2476    0.0000 H       1  UNL1        0.0342
     72 H           8.2102   -5.2894    0.0000 H       1  UNL1        0.0342
     73 H           9.0572   -5.0624    0.0000 H       1  UNL1        0.0342
     74 H           8.8302   -4.2155    0.0000 H       1  UNL1        0.0342
     75 H           3.7379    2.4941    0.0000 H       1  UNL1        0.0342
     76 H           3.2433    3.2181    0.0000 H       1  UNL1        0.0342
     77 H           2.5193    2.7235    0.0000 H       1  UNL1        0.0342
@<TRIPOS>BOND
     1    13     1    1
     2     1    20    1
     3    16     2    1
     4     2    29    1
     5    17     3    1
     6     3    30    1
     7     4    23    1
     8     4    31    1
     9    27     5    1
    10     5    37    1
    11     6    29    2
    12     7    30    2
    13     8    32    1
    14     8    38    1
    15     9    31    2
    16    10    37    2
    17    11    38    2
    18    12    13    1
    19    12    14    1
    20    12    16    1
    21    12    23    1
    22    13    19    1
    23    13    20    1
    24    14    15    1
    25    14    17    1
    26    14    40    1
    27    15    18    1
    28    15    24    1
    29    15    25    1
    30    16    21    1
    31    16    41    1
    32    17    22    1
    33    17    42    1
    34    18    21    1
    35    18    26    1
    36    18    43    1
    37    19    22    1
    38    19    44    1
    39    19    45    1
    40    20    46    1
    41    20    47    1
    42    21    48    1
    43    21    49    1
    44    22    50    1
    45    22    51    1
    46    23    52    1
    47    23    53    1
    48    24    27    1
    49    24    54    1
    50    24    55    1
    51    25    56    1
    52    25    57    1
    53    25    58    1
    54    26    59    1
    55    26    60    1
    56    26    61    1
    57    27    28    1
    58    27    62    1
    59    28    32    1
    60    28    34    2
    61    29    33    1
    62    30    35    1
    63    31    36    1
    64    32    63    1
    65    32    64    1
    66    33    65    1
    67    33    66    1
    68    33    67    1
    69    34    38    1
    70    34    68    1
    71    35    69    1
    72    35    70    1
    73    35    71    1
    74    36    72    1
    75    36    73    1
    76    36    74    1
    77    37    39    1
    78    39    75    1
    79    39    76    1
    80    39    77    1
