@<TRIPOS>MOLECULE
IMPHY013857
 29 28 0 0 0
SMALL
GASTEIGER

@<TRIPOS>ATOM
      1 O           6.0010   -1.2500    0.0000 O.3     1  UNL1       -0.3865
      2 O           5.1350    1.2500    0.0000 O.3     1  UNL1       -0.3865
      3 O           6.8671    1.2500    0.0000 O.3     1  UNL1       -0.3860
      4 O           4.2690   -1.2500    0.0000 O.3     1  UNL1       -0.3869
      5 O           7.7331   -1.2500    0.0000 O.3     1  UNL1       -0.3783
      6 O           2.5369   -0.2500    0.0000 O.3     1  UNL1       -0.3924
      7 O           9.4651   -0.2500    0.0000 O.3     1  UNL1       -0.4788
      8 O           8.5991    1.2500    0.0000 O.2     1  UNL1       -0.2480
      9 C           6.0010   -0.2500    0.0000 C.3     1  UNL1        0.1123
     10 C           5.1350    0.2500    0.0000 C.3     1  UNL1        0.1115
     11 C           6.8671    0.2500    0.0000 C.3     1  UNL1        0.1197
     12 C           4.2690   -0.2500    0.0000 C.3     1  UNL1        0.1065
     13 C           7.7331   -0.2500    0.0000 C.3     1  UNL1        0.1798
     14 C           3.4030    0.2500    0.0000 C.3     1  UNL1        0.0727
     15 C           8.5991    0.2500    0.0000 C.2     1  UNL1        0.3363
     16 H           6.5380   -0.5600    0.0000 H       1  UNL1        0.0647
     17 H           5.6720    0.5600    0.0000 H       1  UNL1        0.0647
     18 H           6.3301    0.5600    0.0000 H       1  UNL1        0.0652
     19 H           4.8059   -0.5600    0.0000 H       1  UNL1        0.0643
     20 H           8.2700   -0.5600    0.0000 H       1  UNL1        0.0738
     21 H           3.8015    0.7249    0.0000 H       1  UNL1        0.0584
     22 H           3.0044    0.7249    0.0000 H       1  UNL1        0.0584
     23 H           5.4641   -1.5600    0.0000 H       1  UNL1        0.2100
     24 H           4.5981    1.5600    0.0000 H       1  UNL1        0.2100
     25 H           7.4040    1.5600    0.0000 H       1  UNL1        0.2100
     26 H           3.7320   -1.5600    0.0000 H       1  UNL1        0.2100
     27 H           8.2700   -1.5600    0.0000 H       1  UNL1        0.2106
     28 H           2.0000    0.0600    0.0000 H       1  UNL1        0.2095
     29 H          10.0021    0.0600    0.0000 H       1  UNL1        0.2951
@<TRIPOS>BOND
     1     1     9    1
     2     1    23    1
     3     2    10    1
     4     2    24    1
     5     3    11    1
     6     3    25    1
     7     4    12    1
     8     4    26    1
     9     5    13    1
    10     5    27    1
    11     6    14    1
    12     6    28    1
    13     7    15    1
    14     7    29    1
    15     8    15    2
    16     9    10    1
    17     9    11    1
    18     9    16    1
    19    10    12    1
    20    10    17    1
    21    11    13    1
    22    11    18    1
    23    12    14    1
    24    12    19    1
    25    13    15    1
    26    13    20    1
    27    14    21    1
    28    14    22    1
