@<TRIPOS>MOLECULE
IMPHY008198
 17 17 0 0 0
SMALL
GASTEIGER

@<TRIPOS>ATOM
      1 O           2.8660    2.0950    0.0000 O.3     1  UNL1       -0.5068
      2 C           2.8660   -0.9050    0.0000 C.ar    1  UNL1       -0.0254
      3 C           2.0000   -0.4050    0.0000 C.ar    1  UNL1       -0.0512
      4 C           3.7320   -0.4050    0.0000 C.ar    1  UNL1       -0.0512
      5 C           2.8660    1.0950    0.0000 C.ar    1  UNL1        0.1169
      6 C           2.0000    0.5950    0.0000 C.ar    1  UNL1       -0.0196
      7 C           3.7320    0.5950    0.0000 C.ar    1  UNL1       -0.0196
      8 C           2.8660   -1.9050    0.0000 C.2     1  UNL1       -0.0617
      9 C           2.0000   -2.4050    0.0000 C.2     1  UNL1       -0.0981
     10 H           1.4631   -0.7150    0.0000 H       1  UNL1        0.0625
     11 H           4.2690   -0.7150    0.0000 H       1  UNL1        0.0625
     12 H           1.4631    0.9050    0.0000 H       1  UNL1        0.0654
     13 H           4.2690    0.9050    0.0000 H       1  UNL1        0.0654
     14 H           3.4030   -2.2150    0.0000 H       1  UNL1        0.0618
     15 H           3.4030    2.4050    0.0000 H       1  UNL1        0.2921
     16 H           1.4631   -2.0950    0.0000 H       1  UNL1        0.0535
     17 H           2.0000   -3.0250    0.0000 H       1  UNL1        0.0535
@<TRIPOS>BOND
     1     1     5    1
     2     1    15    1
     3     2     3   ar
     4     2     4   ar
     5     2     8    1
     6     3     6   ar
     7     3    10    1
     8     4     7   ar
     9     4    11    1
    10     5     6   ar
    11     5     7   ar
    12     6    12    1
    13     7    13    1
    14     8     9    2
    15     8    14    1
    16     9    16    1
    17     9    17    1
