@<TRIPOS>MOLECULE
IMPHY001163
 41 43 0 0 0
SMALL
GASTEIGER

@<TRIPOS>ATOM
      1 O           5.5323   -1.3832    0.0000 O.3     1  UNL1       -0.3646
      2 O           4.6660    2.1173    0.0000 O.3     1  UNL1       -0.3911
      3 C           4.6660   -0.8827    0.0000 C.3     1  UNL1        0.0919
      4 C           3.8000   -0.3827    0.0000 C.3     1  UNL1       -0.0001
      5 C           5.5321   -0.3827    0.0000 C.3     1  UNL1        0.0959
      6 C           3.8000    0.6173    0.0000 C.3     1  UNL1        0.0115
      7 C           2.9061   -0.9174    0.0000 C.3     1  UNL1       -0.0325
      8 C           5.5321    0.6173    0.0000 C.3     1  UNL1        0.0051
      9 C           4.6660    1.1173    0.0000 C.3     1  UNL1        0.0647
     10 C           2.0000   -0.4035    0.0000 C.3     1  UNL1       -0.0459
     11 C           2.9061    1.1520    0.0000 C.2     1  UNL1       -0.0707
     12 C           6.3981    0.1173    0.0000 C.3     1  UNL1       -0.0333
     13 C           2.9176   -1.9173    0.0000 C.3     1  UNL1       -0.0435
     14 C           2.0000    0.6381    0.0000 C.3     1  UNL1       -0.0314
     15 C           2.0574   -2.4273    0.0000 C.3     1  UNL1       -0.0624
     16 C           3.7894   -2.4073    0.0000 C.3     1  UNL1       -0.0624
     17 C           2.9176    2.1519    0.0000 C.2     1  UNL1       -0.0991
     18 H           4.2409   -1.6188    0.0000 H       1  UNL1        0.0628
     19 H           3.8066   -1.2327    0.0000 H       1  UNL1        0.0336
     20 H           3.8066    1.4673    0.0000 H       1  UNL1        0.0374
     21 H           2.3721   -1.2325    0.0000 H       1  UNL1        0.0307
     22 H           6.1426    0.5096    0.0000 H       1  UNL1        0.0319
     23 H           5.7441    1.1999    0.0000 H       1  UNL1        0.0319
     24 H           5.2030    1.4273    0.0000 H       1  UNL1        0.0600
     25 H           1.3891   -0.2974    0.0000 H       1  UNL1        0.0271
     26 H           1.7909   -0.9872    0.0000 H       1  UNL1        0.0271
     27 H           6.7081   -0.4196    0.0000 H       1  UNL1        0.0258
     28 H           6.9350    0.4273    0.0000 H       1  UNL1        0.0258
     29 H           6.0881    0.6542    0.0000 H       1  UNL1        0.0258
     30 H           2.9248   -2.5373    0.0000 H       1  UNL1        0.0298
     31 H           1.7909    1.2218    0.0000 H       1  UNL1        0.0310
     32 H           1.3891    0.5320    0.0000 H       1  UNL1        0.0310
     33 H           5.2030    2.4273    0.0000 H       1  UNL1        0.2098
     34 H           3.4856   -2.9477    0.0000 H       1  UNL1        0.0232
     35 H           4.3299   -2.7110    0.0000 H       1  UNL1        0.0232
     36 H           1.7413   -1.8940    0.0000 H       1  UNL1        0.0232
     37 H           4.0931   -1.8668    0.0000 H       1  UNL1        0.0232
     38 H           1.5241   -2.7435    0.0000 H       1  UNL1        0.0232
     39 H           2.3736   -2.9606    0.0000 H       1  UNL1        0.0232
     40 H           3.4581    2.4556    0.0000 H       1  UNL1        0.0534
     41 H           2.3843    2.4681    0.0000 H       1  UNL1        0.0534
@<TRIPOS>BOND
     1     1     3    1
     2     1     5    1
     3     9     2    1
     4     2    33    1
     5     3     4    1
     6     3     5    1
     7     3    18    1
     8     4     6    1
     9     4     7    1
    10     4    19    1
    11     5     8    1
    12     5    12    1
    13     6     9    1
    14     6    11    1
    15     6    20    1
    16     7    10    1
    17     7    13    1
    18     7    21    1
    19     8     9    1
    20     8    22    1
    21     8    23    1
    22     9    24    1
    23    10    14    1
    24    10    25    1
    25    10    26    1
    26    11    14    1
    27    11    17    2
    28    12    27    1
    29    12    28    1
    30    12    29    1
    31    13    15    1
    32    13    16    1
    33    13    30    1
    34    14    31    1
    35    14    32    1
    36    15    36    1
    37    15    38    1
    38    15    39    1
    39    16    34    1
    40    16    35    1
    41    16    37    1
    42    17    40    1
    43    17    41    1
