@<TRIPOS>MOLECULE
IMPHY001527
 64 67 0 0 0
SMALL
GASTEIGER

@<TRIPOS>ATOM
      1 O           5.0567    1.7348    0.0000 O.3     1  UNL1       -0.4605
      2 O           9.5013    2.0941    0.0000 O.3     1  UNL1       -0.3912
      3 O           6.0010   -0.9811    0.0000 O.3     1  UNL1       -0.3484
      4 O           3.4639    2.5212    0.0000 O.2     1  UNL1       -0.2505
      5 O           4.2690   -0.9811    0.0000 O.3     1  UNL1       -0.3405
      6 O           6.0010   -2.9811    0.0000 O.3     1  UNL1       -0.3841
      7 O           4.2690   -3.9811    0.0000 O.3     1  UNL1       -0.3864
      8 O           2.5369   -2.9811    0.0000 O.3     1  UNL1       -0.3865
      9 O           2.5369    0.0189    0.0000 O.3     1  UNL1       -0.3924
     10 C           7.7313    2.0705    0.0000 C.3     1  UNL1        0.0004
     11 C           6.8711    1.5606    0.0000 C.3     1  UNL1        0.0091
     12 C           5.9993    2.0505    0.0000 C.3     1  UNL1        0.1103
     13 C           5.9878    3.0504    0.0000 C.3     1  UNL1        0.0091
     14 C           6.8671    0.5189    0.0000 C.3     1  UNL1       -0.0106
     15 C           7.7197    3.0705    0.0000 C.3     1  UNL1       -0.0445
     16 C           8.6471    1.5742    0.0000 C.3     1  UNL1        0.0610
     17 C           6.8480    3.5604    0.0000 C.3     1  UNL1       -0.0455
     18 C           7.7711    0.0016    0.0000 C.3     1  UNL1       -0.0454
     19 C           8.6671    0.5328    0.0000 C.3     1  UNL1       -0.0260
     20 C           5.0381    3.3442    0.0000 C.3     1  UNL1        0.0598
     21 C           8.5914    2.5805    0.0000 C.3     1  UNL1       -0.0568
     22 C           6.0010    0.0189    0.0000 C.3     1  UNL1        0.0540
     23 C           4.4638    2.5328    0.0000 C.2     1  UNL1        0.3106
     24 C           4.7164    4.2911    0.0000 C.3     1  UNL1       -0.0519
     25 C           5.1350   -1.4811    0.0000 C.3     1  UNL1        0.1879
     26 C           5.1350   -2.4811    0.0000 C.3     1  UNL1        0.1341
     27 C           4.2690   -2.9811    0.0000 C.3     1  UNL1        0.1141
     28 C           3.4030   -1.4811    0.0000 C.3     1  UNL1        0.1130
     29 C           3.4030   -2.4811    0.0000 C.3     1  UNL1        0.1119
     30 C           2.5369   -0.9811    0.0000 C.3     1  UNL1        0.0730
     31 H           6.1366    1.1327    0.0000 H       1  UNL1        0.0346
     32 H           5.9192    1.2043    0.0000 H       1  UNL1        0.0740
     33 H           5.8880    3.8946    0.0000 H       1  UNL1        0.0344
     34 H           6.3307    0.8300    0.0000 H       1  UNL1        0.0327
     35 H           8.3315    2.9699    0.0000 H       1  UNL1        0.0272
     36 H           7.9250    3.6555    0.0000 H       1  UNL1        0.0272
     37 H           9.1904    1.2757    0.0000 H       1  UNL1        0.0599
     38 H           7.2410    4.0399    0.0000 H       1  UNL1        0.0269
     39 H           6.4440    4.0307    0.0000 H       1  UNL1        0.0269
     40 H           7.3757   -0.4759    0.0000 H       1  UNL1        0.0270
     41 H           8.1739   -0.4698    0.0000 H       1  UNL1        0.0270
     42 H           8.8874   -0.0467    0.0000 H       1  UNL1        0.0290
     43 H           9.2758    0.6506    0.0000 H       1  UNL1        0.0290
     44 H           4.4245    3.4333    0.0000 H       1  UNL1        0.0415
     45 H           8.9076    2.0472    0.0000 H       1  UNL1        0.0236
     46 H           9.1248    2.8967    0.0000 H       1  UNL1        0.0236
     47 H           8.2753    3.1138    0.0000 H       1  UNL1        0.0236
     48 H           5.7890    0.6015    0.0000 H       1  UNL1        0.0564
     49 H           5.3905   -0.0887    0.0000 H       1  UNL1        0.0564
     50 H           5.3035    4.4905    0.0000 H       1  UNL1        0.0238
     51 H           4.5170    4.8781    0.0000 H       1  UNL1        0.0238
     52 H           4.1294    4.0917    0.0000 H       1  UNL1        0.0238
     53 H          10.0453    1.7966    0.0000 H       1  UNL1        0.2098
     54 H           5.1350   -0.8611    0.0000 H       1  UNL1        0.0937
     55 H           5.1350   -3.1011    0.0000 H       1  UNL1        0.0671
     56 H           3.7320   -3.2911    0.0000 H       1  UNL1        0.0648
     57 H           3.4030   -0.8611    0.0000 H       1  UNL1        0.0647
     58 H           2.8660   -2.1711    0.0000 H       1  UNL1        0.0647
     59 H           1.9264   -0.8734    0.0000 H       1  UNL1        0.0584
     60 H           2.3249   -1.5637    0.0000 H       1  UNL1        0.0584
     61 H           6.5380   -2.6711    0.0000 H       1  UNL1        0.2101
     62 H           3.7320   -4.2911    0.0000 H       1  UNL1        0.2100
     63 H           2.0000   -2.6711    0.0000 H       1  UNL1        0.2100
     64 H           2.0000    0.3289    0.0000 H       1  UNL1        0.2095
@<TRIPOS>BOND
     1     1    12    1
     2     1    23    1
     3    16     2    1
     4     2    53    1
     5     3    22    1
     6    25     3    1
     7     4    23    2
     8     5    25    1
     9     5    28    1
    10    26     6    1
    11     6    61    1
    12    27     7    1
    13     7    62    1
    14    29     8    1
    15     8    63    1
    16     9    30    1
    17     9    64    1
    18    10    11    1
    19    10    15    1
    20    10    16    1
    21    10    21    1
    22    11    12    1
    23    11    14    1
    24    11    31    1
    25    12    13    1
    26    12    32    1
    27    13    17    1
    28    13    20    1
    29    13    33    1
    30    14    18    1
    31    14    22    1
    32    14    34    1
    33    15    17    1
    34    15    35    1
    35    15    36    1
    36    16    19    1
    37    16    37    1
    38    17    38    1
    39    17    39    1
    40    18    19    1
    41    18    40    1
    42    18    41    1
    43    19    42    1
    44    19    43    1
    45    20    23    1
    46    20    24    1
    47    20    44    1
    48    21    45    1
    49    21    46    1
    50    21    47    1
    51    22    48    1
    52    22    49    1
    53    24    50    1
    54    24    51    1
    55    24    52    1
    56    25    26    1
    57    25    54    1
    58    26    27    1
    59    26    55    1
    60    27    29    1
    61    27    56    1
    62    28    29    1
    63    28    30    1
    64    28    57    1
    65    29    58    1
    66    30    59    1
    67    30    60    1
