@<TRIPOS>MOLECULE
IMPHY002665
 37 40 0 0 0
SMALL
GASTEIGER

@<TRIPOS>ATOM
      1 O           2.7905    2.7175    0.0000 O.3     1  UNL1       -0.4950
      2 N           3.0056   -0.8976    0.0000 N.ar    1  UNL1       -0.3377
      3 N           4.8558   -2.9539    0.0000 N.2     1  UNL1       -0.2852
      4 C           2.9023   -2.5941    0.0000 C.3     1  UNL1        0.0267
      5 C           2.4133   -1.7130    0.0000 C.3     1  UNL1        0.0345
      6 C           3.8146   -1.4854    0.0000 C.ar    1  UNL1        0.0679
      7 C           3.9075   -2.5229    0.0000 C.2     1  UNL1        0.0669
      8 C           4.6236   -0.8976    0.0000 C.ar    1  UNL1       -0.0113
      9 C           3.3146    0.0534    0.0000 C.ar    1  UNL1        0.0533
     10 C           4.3146    0.0534    0.0000 C.ar    1  UNL1        0.0040
     11 C           5.5816   -1.3066    0.0000 C.3     1  UNL1       -0.0055
     12 C           2.0000   -3.0253    0.0000 C.3     1  UNL1       -0.0527
     13 C           3.0335   -3.5855    0.0000 C.3     1  UNL1       -0.0527
     14 C           5.6985   -2.3416    0.0000 C.3     1  UNL1        0.0441
     15 C           2.7800    0.9474    0.0000 C.ar    1  UNL1        0.0042
     16 C           4.8493    0.9474    0.0000 C.ar    1  UNL1       -0.0488
     17 C           3.2938    1.8534    0.0000 C.ar    1  UNL1        0.1221
     18 C           4.3354    1.8534    0.0000 C.ar    1  UNL1       -0.0193
     19 C           3.2871    3.5855    0.0000 C.3     1  UNL1        0.0788
     20 H           1.9697   -1.2798    0.0000 H       1  UNL1        0.0501
     21 H           1.9204   -2.0891    0.0000 H       1  UNL1        0.0501
     22 H           6.2005   -1.3435    0.0000 H       1  UNL1        0.0332
     23 H           5.7239   -0.7031    0.0000 H       1  UNL1        0.0332
     24 H           2.4189   -3.6668    0.0000 H       1  UNL1        0.0239
     25 H           3.1149   -4.2001    0.0000 H       1  UNL1        0.0239
     26 H           3.6481   -3.5041    0.0000 H       1  UNL1        0.0239
     27 H           1.7327   -2.4658    0.0000 H       1  UNL1        0.0239
     28 H           1.4406   -3.2926    0.0000 H       1  UNL1        0.0239
     29 H           2.2673   -3.5847    0.0000 H       1  UNL1        0.0239
     30 H           5.9717   -2.8982    0.0000 H       1  UNL1        0.0511
     31 H           6.2936   -2.1677    0.0000 H       1  UNL1        0.0511
     32 H           2.1600    0.9402    0.0000 H       1  UNL1        0.0675
     33 H           5.4692    0.9402    0.0000 H       1  UNL1        0.0625
     34 H           4.6475    2.3892    0.0000 H       1  UNL1        0.0654
     35 H           3.8253    3.2775    0.0000 H       1  UNL1        0.0660
     36 H           3.5951    4.1236    0.0000 H       1  UNL1        0.0660
     37 H           2.7490    3.8934    0.0000 H       1  UNL1        0.0660
@<TRIPOS>BOND
     1     1    17    1
     2     1    19    1
     3     2     5    1
     4     2     6   ar
     5     2     9   ar
     6     3     7    2
     7     3    14    1
     8     4     5    1
     9     4     7    1
    10     4    12    1
    11     4    13    1
    12     5    20    1
    13     5    21    1
    14     6     7    1
    15     6     8   ar
    16     8    10   ar
    17     8    11    1
    18     9    10   ar
    19     9    15   ar
    20    10    16   ar
    21    11    14    1
    22    11    22    1
    23    11    23    1
    24    12    27    1
    25    12    28    1
    26    12    29    1
    27    13    24    1
    28    13    25    1
    29    13    26    1
    30    14    30    1
    31    14    31    1
    32    15    17   ar
    33    15    32    1
    34    16    18   ar
    35    16    33    1
    36    17    18   ar
    37    18    34    1
    38    19    35    1
    39    19    36    1
    40    19    37    1
