@<TRIPOS>MOLECULE
IMPHY005130
 46 48 0 0 0
SMALL
GASTEIGER

@<TRIPOS>ATOM
      1 O           4.6917   -2.3360    0.0000 O.2     1  UNL1       -0.2921
      2 O           7.3757    0.9724    0.0000 O.2     1  UNL1       -0.2873
      3 C           4.1538    0.7499    0.0000 C.3     1  UNL1       -0.0051
      4 C           4.3764   -0.2251    0.0000 C.3     1  UNL1        0.0154
      5 C           3.1633    1.0722    0.0000 C.3     1  UNL1       -0.0130
      6 C           5.2773   -0.6589    0.0000 C.2     1  UNL1        0.0097
      7 C           2.3943    0.3696    0.0000 C.3     1  UNL1       -0.0423
      8 C           3.6238   -0.9452    0.0000 C.2     1  UNL1       -0.0685
      9 C           2.6261   -0.6459    0.0000 C.3     1  UNL1       -0.0308
     10 C           6.1783   -0.2251    0.0000 C.2     1  UNL1        0.0073
     11 C           4.7773    1.5317    0.0000 C.2     1  UNL1       -0.0729
     12 C           6.3916   -1.8203    0.0000 C.3     1  UNL1        0.0231
     13 C           6.8634   -0.9454    0.0000 C.3     1  UNL1       -0.0141
     14 C           5.4133   -1.6437    0.0000 C.2     1  UNL1        0.1633
     15 C           2.9521    2.0496    0.0000 C.2     1  UNL1       -0.0760
     16 C           5.7773    1.5317    0.0000 C.2     1  UNL1       -0.0071
     17 C           6.4008    0.7499    0.0000 C.2     1  UNL1        0.1851
     18 C           3.8576   -1.9175    0.0000 C.2     1  UNL1       -0.0989
     19 C           6.8255   -2.7213    0.0000 C.3     1  UNL1       -0.0551
     20 C           2.0000    2.3554    0.0000 C.3     1  UNL1       -0.0438
     21 C           6.2112    2.4327    0.0000 C.3     1  UNL1       -0.0364
     22 C           3.6930    2.7213    0.0000 C.2     1  UNL1       -0.0994
     23 H           3.9096    1.5640    0.0000 H       1  UNL1        0.0358
     24 H           4.5095   -1.0646    0.0000 H       1  UNL1        0.0401
     25 H           2.3535    1.3306    0.0000 H       1  UNL1        0.0351
     26 H           2.0606    0.8922    0.0000 H       1  UNL1        0.0274
     27 H           1.8224    0.1303    0.0000 H       1  UNL1        0.0274
     28 H           2.0070   -0.6784    0.0000 H       1  UNL1        0.0310
     29 H           2.5522   -1.2615    0.0000 H       1  UNL1        0.0310
     30 H           4.5083    2.0903    0.0000 H       1  UNL1        0.0579
     31 H           7.0114   -1.8345    0.0000 H       1  UNL1        0.0381
     32 H           7.3752   -1.2954    0.0000 H       1  UNL1        0.0321
     33 H           7.2652   -0.4732    0.0000 H       1  UNL1        0.0321
     34 H           3.4080   -2.3445    0.0000 H       1  UNL1        0.0535
     35 H           4.4521   -2.0934    0.0000 H       1  UNL1        0.0535
     36 H           6.2669   -2.9903    0.0000 H       1  UNL1        0.0237
     37 H           7.0945   -3.2799    0.0000 H       1  UNL1        0.0237
     38 H           7.3841   -2.4523    0.0000 H       1  UNL1        0.0237
     39 H           2.1896    2.9457    0.0000 H       1  UNL1        0.0274
     40 H           1.4097    2.5450    0.0000 H       1  UNL1        0.0274
     41 H           1.8104    1.7651    0.0000 H       1  UNL1        0.0274
     42 H           6.7698    2.1637    0.0000 H       1  UNL1        0.0279
     43 H           6.4802    2.9913    0.0000 H       1  UNL1        0.0279
     44 H           5.6526    2.7017    0.0000 H       1  UNL1        0.0279
     45 H           4.2833    2.5317    0.0000 H       1  UNL1        0.0534
     46 H           3.5620    3.3273    0.0000 H       1  UNL1        0.0534
@<TRIPOS>BOND
     1     1    14    2
     2     2    17    2
     3     3     4    1
     4     3     5    1
     5     3    11    1
     6     3    23    1
     7     4     6    1
     8     4     8    1
     9     4    24    1
    10     5     7    1
    11     5    15    1
    12     5    25    1
    13     6    10    2
    14     6    14    1
    15     7     9    1
    16     7    26    1
    17     7    27    1
    18     8     9    1
    19     8    18    2
    20     9    28    1
    21     9    29    1
    22    10    13    1
    23    10    17    1
    24    11    16    2
    25    11    30    1
    26    12    13    1
    27    12    14    1
    28    12    19    1
    29    12    31    1
    30    13    32    1
    31    13    33    1
    32    15    20    1
    33    15    22    2
    34    16    17    1
    35    16    21    1
    36    18    34    1
    37    18    35    1
    38    19    36    1
    39    19    37    1
    40    19    38    1
    41    20    39    1
    42    20    40    1
    43    20    41    1
    44    21    42    1
    45    21    43    1
    46    21    44    1
    47    22    45    1
    48    22    46    1
