@<TRIPOS>MOLECULE
IMPHY004169
 86 90 0 0 0
SMALL
GASTEIGER

@<TRIPOS>ATOM
      1 O           6.1847   -2.9697    0.0000 O.3     1  UNL1       -0.3910
      2 O          11.5367    3.2439    0.0000 O.3     1  UNL1       -0.3912
      3 O           3.7035   -2.7672    0.0000 O.3     1  UNL1       -0.3885
      4 O           2.5357   -1.9528    0.0000 O.3     1  UNL1       -0.3887
      5 O           4.9217   -3.3859    0.0000 O.3     1  UNL1       -0.3943
      6 O          12.1693    0.7838    0.0000 O.3     1  UNL1       -0.3944
      7 C           7.9288    0.0995    0.0000 C.3     1  UNL1       -0.0193
      8 C           7.9288    1.0995    0.0000 C.3     1  UNL1       -0.0257
      9 C           8.8228    1.6342    0.0000 C.3     1  UNL1       -0.0249
     10 C           7.0628   -0.4005    0.0000 C.3     1  UNL1       -0.0028
     11 C           9.7288    1.1204    0.0000 C.3     1  UNL1       -0.0255
     12 C           8.8228   -0.4351    0.0000 C.3     1  UNL1       -0.0463
     13 C           6.1968    0.0995    0.0000 C.2     1  UNL1       -0.0631
     14 C           5.2868   -0.4073    0.0000 C.3     1  UNL1       -0.0062
     15 C           5.2787   -1.4489    0.0000 C.3     1  UNL1        0.0545
     16 C           9.7288    0.0787    0.0000 C.3     1  UNL1       -0.0485
     17 C           7.0789   -1.4420    0.0000 C.3     1  UNL1       -0.0165
     18 C          10.6726    1.6556    0.0000 C.3     1  UNL1        0.0203
     19 C           7.0628    1.5995    0.0000 C.3     1  UNL1       -0.0306
     20 C           8.7977    2.7189    0.0000 C.3     1  UNL1       -0.0447
     21 C           6.1808   -1.9697    0.0000 C.3     1  UNL1        0.0667
     22 C           8.2709   -0.8401    0.0000 C.3     1  UNL1       -0.0585
     23 C           6.1968    1.0995    0.0000 C.2     1  UNL1       -0.0836
     24 C           4.3599    0.1568    0.0000 C.3     1  UNL1       -0.0381
     25 C          10.6726    2.7406    0.0000 C.3     1  UNL1        0.0630
     26 C           7.7056   -1.1665    0.0000 C.3     1  UNL1       -0.0552
     27 C           7.9529    2.1275    0.0000 C.3     1  UNL1       -0.0590
     28 C           4.3433   -1.9986    0.0000 C.3     1  UNL1        0.0921
     29 C           9.7288    3.2758    0.0000 C.3     1  UNL1       -0.0257
     30 C           3.4120   -0.3712    0.0000 C.3     1  UNL1       -0.0059
     31 C           3.4037   -1.4561    0.0000 C.3     1  UNL1        0.0869
     32 C           5.2710   -2.4489    0.0000 C.3     1  UNL1        0.0552
     33 C          11.6726    1.6517    0.0000 C.3     1  UNL1        0.0522
     34 C          11.1693    0.7876    0.0000 C.3     1  UNL1       -0.0548
     35 C           2.4121   -0.3596    0.0000 C.3     1  UNL1       -0.0574
     36 C           2.9221    0.5006    0.0000 C.3     1  UNL1       -0.0574
     37 H           8.6682    0.6802    0.0000 H       1  UNL1        0.0315
     38 H          10.4633    0.6925    0.0000 H       1  UNL1        0.0313
     39 H           8.4182   -0.9049    0.0000 H       1  UNL1        0.0271
     40 H           9.2164   -0.9141    0.0000 H       1  UNL1        0.0271
     41 H           5.3031    0.4425    0.0000 H       1  UNL1        0.0354
     42 H           9.9379   -0.5050    0.0000 H       1  UNL1        0.0268
     43 H          10.3397    0.1848    0.0000 H       1  UNL1        0.0268
     44 H           7.2969   -2.0224    0.0000 H       1  UNL1        0.0299
     45 H           7.6880   -1.3265    0.0000 H       1  UNL1        0.0299
     46 H           7.4613    2.0745    0.0000 H       1  UNL1        0.0310
     47 H           6.6643    2.0745    0.0000 H       1  UNL1        0.0310
     48 H           8.5752    3.2976    0.0000 H       1  UNL1        0.0271
     49 H           8.1894    2.5987    0.0000 H       1  UNL1        0.0271
     50 H           6.7195   -2.2766    0.0000 H       1  UNL1        0.0601
     51 H           7.6884   -1.0522    0.0000 H       1  UNL1        0.0235
     52 H           8.4830   -1.4227    0.0000 H       1  UNL1        0.0235
     53 H           8.8535   -0.6280    0.0000 H       1  UNL1        0.0235
     54 H           5.6598    1.4095    0.0000 H       1  UNL1        0.0572
     55 H           4.7681    0.6234    0.0000 H       1  UNL1        0.0277
     56 H           3.9700    0.6388    0.0000 H       1  UNL1        0.0277
     57 H          11.2101    2.4316    0.0000 H       1  UNL1        0.0599
     58 H           7.2306   -1.5650    0.0000 H       1  UNL1        0.0238
     59 H           8.1041   -1.6415    0.0000 H       1  UNL1        0.0238
     60 H           8.1805   -0.7680    0.0000 H       1  UNL1        0.0238
     61 H           8.2588    2.6668    0.0000 H       1  UNL1        0.0235
     62 H           7.4136    2.4334    0.0000 H       1  UNL1        0.0235
     63 H           7.6471    1.5882    0.0000 H       1  UNL1        0.0235
     64 H           4.7446   -2.4713    0.0000 H       1  UNL1        0.0626
     65 H          10.1225    3.7548    0.0000 H       1  UNL1        0.0290
     66 H           9.3242    3.7456    0.0000 H       1  UNL1        0.0290
     67 H           3.4025   -2.0761    0.0000 H       1  UNL1        0.0625
     68 H           5.7187   -2.8778    0.0000 H       1  UNL1        0.0564
     69 H           4.6613   -2.3365    0.0000 H       1  UNL1        0.0564
     70 H          12.2560    1.8615    0.0000 H       1  UNL1        0.0563
     71 H          11.5673    2.2627    0.0000 H       1  UNL1        0.0563
     72 H          10.6311    0.4797    0.0000 H       1  UNL1        0.0237
     73 H          11.4772    0.2495    0.0000 H       1  UNL1        0.0237
     74 H          11.7074    1.0956    0.0000 H       1  UNL1        0.0237
     75 H           6.7228   -3.2776    0.0000 H       1  UNL1        0.2098
     76 H           2.4193    0.2603    0.0000 H       1  UNL1        0.0236
     77 H           1.7922   -0.3524    0.0000 H       1  UNL1        0.0236
     78 H           2.4049   -0.9796    0.0000 H       1  UNL1        0.0236
     79 H           3.4626    0.8043    0.0000 H       1  UNL1        0.0236
     80 H           2.6183    1.0411    0.0000 H       1  UNL1        0.0236
     81 H           2.3816    0.1968    0.0000 H       1  UNL1        0.0236
     82 H          11.5343    3.8639    0.0000 H       1  UNL1        0.2098
     83 H           3.0925   -2.6619    0.0000 H       1  UNL1        0.2099
     84 H           2.0000   -1.6407    0.0000 H       1  UNL1        0.2099
     85 H           5.3166   -3.8639    0.0000 H       1  UNL1        0.2094
     86 H          12.7893    0.7814    0.0000 H       1  UNL1        0.2094
@<TRIPOS>BOND
     1    21     1    1
     2     1    75    1
     3    25     2    1
     4     2    82    1
     5    28     3    1
     6     3    83    1
     7    31     4    1
     8     4    84    1
     9     5    32    1
    10     5    85    1
    11     6    33    1
    12     6    86    1
    13     7     8    1
    14     7    10    1
    15     7    12    1
    16     7    22    1
    17     8     9    1
    18     8    19    1
    19     8    37    1
    20     9    11    1
    21     9    20    1
    22     9    27    1
    23    10    13    1
    24    10    17    1
    25    10    26    1
    26    11    16    1
    27    11    18    1
    28    11    38    1
    29    12    16    1
    30    12    39    1
    31    12    40    1
    32    13    14    1
    33    13    23    2
    34    14    15    1
    35    14    24    1
    36    14    41    1
    37    15    21    1
    38    15    28    1
    39    15    32    1
    40    16    42    1
    41    16    43    1
    42    17    21    1
    43    17    44    1
    44    17    45    1
    45    18    25    1
    46    18    33    1
    47    18    34    1
    48    19    23    1
    49    19    46    1
    50    19    47    1
    51    20    29    1
    52    20    48    1
    53    20    49    1
    54    21    50    1
    55    22    51    1
    56    22    52    1
    57    22    53    1
    58    23    54    1
    59    24    30    1
    60    24    55    1
    61    24    56    1
    62    25    29    1
    63    25    57    1
    64    26    58    1
    65    26    59    1
    66    26    60    1
    67    27    61    1
    68    27    62    1
    69    27    63    1
    70    28    31    1
    71    28    64    1
    72    29    65    1
    73    29    66    1
    74    30    31    1
    75    30    35    1
    76    30    36    1
    77    31    67    1
    78    32    68    1
    79    32    69    1
    80    33    70    1
    81    33    71    1
    82    34    72    1
    83    34    73    1
    84    34    74    1
    85    35    76    1
    86    35    77    1
    87    35    78    1
    88    36    79    1
    89    36    80    1
    90    36    81    1
