@<TRIPOS>MOLECULE
IMPHY008257
 134 141 0 0 0
SMALL
GASTEIGER

@<TRIPOS>ATOM
      1 O          10.9967   -1.2343    0.0000 O.3     1  UNL1       -0.3449
      2 O           3.8374    4.9243    0.0000 O.3     1  UNL1       -0.4802
      3 O           5.5694    4.9443    0.0000 O.2     1  UNL1       -0.2504
      4 O          11.8628    0.2657    0.0000 O.3     1  UNL1       -0.3461
      5 O          12.7288   -2.2343    0.0000 O.3     1  UNL1       -0.3378
      6 O          14.4609   -1.2343    0.0000 O.3     1  UNL1       -0.3401
      7 O          14.4609    0.7657    0.0000 O.3     1  UNL1       -0.3868
      8 O          10.9967   -2.2343    0.0000 O.3     1  UNL1       -0.3431
      9 O          15.3269    0.2657    0.0000 O.3     1  UNL1       -0.3405
     10 O          12.7288   -4.2343    0.0000 O.3     1  UNL1       -0.3841
     11 O          16.1929   -2.2343    0.0000 O.3     1  UNL1       -0.3841
     12 O          10.9967   -5.2343    0.0000 O.3     1  UNL1       -0.3864
     13 O           9.2647   -4.2343    0.0000 O.3     1  UNL1       -0.3866
     14 O          17.9250   -1.2343    0.0000 O.3     1  UNL1       -0.3864
     15 O          17.9250    0.7657    0.0000 O.3     1  UNL1       -0.3865
     16 O          15.3269    2.2657    0.0000 O.3     1  UNL1       -0.3924
     17 C           7.3768    1.8962    0.0000 C.3     1  UNL1       -0.0194
     18 C           8.2766    0.3650    0.0000 C.3     1  UNL1       -0.0250
     19 C           7.3806    0.8962    0.0000 C.3     1  UNL1       -0.0257
     20 C           9.1807    0.8823    0.0000 C.3     1  UNL1       -0.0278
     21 C           6.5088    2.3928    0.0000 C.3     1  UNL1       -0.0051
     22 C           8.2686    2.4343    0.0000 C.3     1  UNL1       -0.0463
     23 C          10.1265    0.3507    0.0000 C.3     1  UNL1       -0.0052
     24 C           9.1767    1.9240    0.0000 C.3     1  UNL1       -0.0486
     25 C           8.2557   -0.7198    0.0000 C.3     1  UNL1       -0.0447
     26 C           5.6447    1.8895    0.0000 C.2     1  UNL1       -0.0626
     27 C           6.5165    0.3929    0.0000 C.3     1  UNL1       -0.0306
     28 C           6.5209    3.4344    0.0000 C.3     1  UNL1       -0.0424
     29 C           4.7328    2.3928    0.0000 C.3     1  UNL1        0.0000
     30 C          10.1307   -0.7343    0.0000 C.3     1  UNL1        0.0672
     31 C           7.7152    2.8372    0.0000 C.3     1  UNL1       -0.0585
     32 C           4.7207    3.4344    0.0000 C.3     1  UNL1        0.0746
     33 C           7.4087   -0.1317    0.0000 C.3     1  UNL1       -0.0590
     34 C           9.1890   -1.2731    0.0000 C.3     1  UNL1       -0.0255
     35 C           5.6486    0.8895    0.0000 C.2     1  UNL1       -0.0836
     36 C           5.6208    3.9587    0.0000 C.3     1  UNL1       -0.0359
     37 C           7.1486    3.1614    0.0000 C.3     1  UNL1       -0.0553
     38 C          10.6199    1.2206    0.0000 C.3     1  UNL1       -0.0572
     39 C          11.1265    0.3584    0.0000 C.3     1  UNL1       -0.0572
     40 C           3.8081    1.8252    0.0000 C.3     1  UNL1       -0.0244
     41 C           3.7832    3.9805    0.0000 C.3     1  UNL1       -0.0330
     42 C           2.8457    3.4344    0.0000 C.3     1  UNL1       -0.0310
     43 C           4.7092    4.4344    0.0000 C.2     1  UNL1        0.3115
     44 C           2.8582    2.3495    0.0000 C.2     1  UNL1       -0.0760
     45 C          11.8628   -0.7343    0.0000 C.3     1  UNL1        0.1882
     46 C           2.0000    1.8362    0.0000 C.2     1  UNL1       -0.0994
     47 C          12.7288   -1.2343    0.0000 C.3     1  UNL1        0.1410
     48 C          13.5948   -0.7343    0.0000 C.3     1  UNL1        0.1206
     49 C          12.7288    0.7657    0.0000 C.3     1  UNL1        0.0792
     50 C          13.5948    0.2657    0.0000 C.3     1  UNL1        0.1073
     51 C          11.8628   -2.7343    0.0000 C.3     1  UNL1        0.1884
     52 C          15.3269   -0.7343    0.0000 C.3     1  UNL1        0.1884
     53 C          11.8628   -3.7343    0.0000 C.3     1  UNL1        0.1341
     54 C          16.1929   -1.2343    0.0000 C.3     1  UNL1        0.1341
     55 C          10.9967   -4.2343    0.0000 C.3     1  UNL1        0.1140
     56 C          10.1307   -2.7343    0.0000 C.3     1  UNL1        0.0873
     57 C          10.1307   -3.7343    0.0000 C.3     1  UNL1        0.1095
     58 C          17.0589   -0.7343    0.0000 C.3     1  UNL1        0.1141
     59 C          16.1929    0.7657    0.0000 C.3     1  UNL1        0.1130
     60 C          17.0589    0.2657    0.0000 C.3     1  UNL1        0.1119
     61 C           9.2647   -2.2343    0.0000 C.3     1  UNL1       -0.0361
     62 C          16.1929    1.7657    0.0000 C.3     1  UNL1        0.0730
     63 H           8.1184    1.3184    0.0000 H       1  UNL1        0.0315
     64 H           9.9135    1.3130    0.0000 H       1  UNL1        0.0312
     65 H           8.6604    2.9148    0.0000 H       1  UNL1        0.0271
     66 H           7.8622    2.9025    0.0000 H       1  UNL1        0.0271
     67 H           9.7879    1.8202    0.0000 H       1  UNL1        0.0268
     68 H           9.3835    2.5084    0.0000 H       1  UNL1        0.0268
     69 H           7.6470   -0.6020    0.0000 H       1  UNL1        0.0271
     70 H           8.0354   -1.2994    0.0000 H       1  UNL1        0.0271
     71 H           6.1198   -0.0836    0.0000 H       1  UNL1        0.0310
     72 H           6.9169   -0.0805    0.0000 H       1  UNL1        0.0310
     73 H           7.1304    3.3213    0.0000 H       1  UNL1        0.0274
     74 H           6.7367    4.0156    0.0000 H       1  UNL1        0.0274
     75 H           4.7524    1.5431    0.0000 H       1  UNL1        0.0359
     76 H          10.1295   -1.3543    0.0000 H       1  UNL1        0.0602
     77 H           8.2986    2.6274    0.0000 H       1  UNL1        0.0235
     78 H           7.9250    3.4206    0.0000 H       1  UNL1        0.0235
     79 H           7.1317    3.0470    0.0000 H       1  UNL1        0.0235
     80 H           8.7862   -1.7445    0.0000 H       1  UNL1        0.0290
     81 H           9.5845   -1.7506    0.0000 H       1  UNL1        0.0290
     82 H           7.1007    0.4065    0.0000 H       1  UNL1        0.0235
     83 H           6.8706   -0.4396    0.0000 H       1  UNL1        0.0235
     84 H           7.7166   -0.6698    0.0000 H       1  UNL1        0.0235
     85 H           5.1128    0.5775    0.0000 H       1  UNL1        0.0572
     86 H           6.0199    4.4331    0.0000 H       1  UNL1        0.0276
     87 H           5.2217    4.4331    0.0000 H       1  UNL1        0.0276
     88 H           7.6251    2.7647    0.0000 H       1  UNL1        0.0238
     89 H           7.5454    3.6378    0.0000 H       1  UNL1        0.0238
     90 H           6.6722    3.5581    0.0000 H       1  UNL1        0.0238
     91 H          11.1592    0.9147    0.0000 H       1  UNL1        0.0236
     92 H          10.9257    1.7599    0.0000 H       1  UNL1        0.0236
     93 H          10.0805    1.5264    0.0000 H       1  UNL1        0.0236
     94 H          11.1313   -0.2615    0.0000 H       1  UNL1        0.0236
     95 H          11.7465    0.3632    0.0000 H       1  UNL1        0.0236
     96 H          11.1217    0.9784    0.0000 H       1  UNL1        0.0236
     97 H           3.4201    1.3417    0.0000 H       1  UNL1        0.0316
     98 H           4.2181    1.3601    0.0000 H       1  UNL1        0.0316
     99 H           4.1823    4.4550    0.0000 H       1  UNL1        0.0279
    100 H           3.3841    4.4550    0.0000 H       1  UNL1        0.0279
    101 H           2.6299    4.0156    0.0000 H       1  UNL1        0.0310
    102 H           2.2361    3.3213    0.0000 H       1  UNL1        0.0310
    103 H          11.3258   -0.4243    0.0000 H       1  UNL1        0.0937
    104 H           1.4584    2.1379    0.0000 H       1  UNL1        0.0534
    105 H           2.0096    1.2163    0.0000 H       1  UNL1        0.0534
    106 H          12.1919   -1.5443    0.0000 H       1  UNL1        0.0675
    107 H           3.8303    5.5443    0.0000 H       1  UNL1        0.2951
    108 H          14.1318   -0.4243    0.0000 H       1  UNL1        0.0651
    109 H          13.1273    1.2407    0.0000 H       1  UNL1        0.0587
    110 H          12.3303    1.2407    0.0000 H       1  UNL1        0.0587
    111 H          13.5948    0.8857    0.0000 H       1  UNL1        0.0643
    112 H          12.3997   -3.0443    0.0000 H       1  UNL1        0.0938
    113 H          14.4609    1.3857    0.0000 H       1  UNL1        0.2100
    114 H          15.3269   -1.3543    0.0000 H       1  UNL1        0.0938
    115 H          11.8628   -4.3543    0.0000 H       1  UNL1        0.0671
    116 H          16.7298   -1.5443    0.0000 H       1  UNL1        0.0671
    117 H          10.4598   -4.5443    0.0000 H       1  UNL1        0.0648
    118 H          10.1307   -2.1143    0.0000 H       1  UNL1        0.0621
    119 H           9.5938   -3.4243    0.0000 H       1  UNL1        0.0646
    120 H          17.5959   -0.4243    0.0000 H       1  UNL1        0.0648
    121 H          15.6560    1.0757    0.0000 H       1  UNL1        0.0647
    122 H          17.0589    0.8857    0.0000 H       1  UNL1        0.0647
    123 H          12.7288   -4.8543    0.0000 H       1  UNL1        0.2101
    124 H           9.5747   -1.6973    0.0000 H       1  UNL1        0.0255
    125 H           8.7278   -1.9243    0.0000 H       1  UNL1        0.0255
    126 H           8.9547   -2.7712    0.0000 H       1  UNL1        0.0255
    127 H          16.7298   -2.5443    0.0000 H       1  UNL1        0.2101
    128 H          10.4598   -5.5443    0.0000 H       1  UNL1        0.2100
    129 H          16.8035    1.6581    0.0000 H       1  UNL1        0.0584
    130 H          16.4050    2.3484    0.0000 H       1  UNL1        0.0584
    131 H           8.7278   -3.9243    0.0000 H       1  UNL1        0.2100
    132 H          18.4619   -0.9243    0.0000 H       1  UNL1        0.2100
    133 H          17.9250    1.3857    0.0000 H       1  UNL1        0.2100
    134 H          15.3269    2.8857    0.0000 H       1  UNL1        0.2095
@<TRIPOS>BOND
     1    30     1    1
     2    45     1    1
     3     2    43    1
     4     2   107    1
     5     3    43    2
     6     4    45    1
     7     4    49    1
     8    47     5    1
     9    51     5    1
    10    48     6    1
    11    52     6    1
    12    50     7    1
    13     7   113    1
    14     8    51    1
    15     8    56    1
    16     9    52    1
    17     9    59    1
    18    53    10    1
    19    10   123    1
    20    54    11    1
    21    11   127    1
    22    55    12    1
    23    12   128    1
    24    57    13    1
    25    13   131    1
    26    58    14    1
    27    14   132    1
    28    60    15    1
    29    15   133    1
    30    16    62    1
    31    16   134    1
    32    17    19    1
    33    17    21    1
    34    17    22    1
    35    17    31    1
    36    18    19    1
    37    18    20    1
    38    18    25    1
    39    18    33    1
    40    19    27    1
    41    19    63    1
    42    20    23    1
    43    20    24    1
    44    20    64    1
    45    21    26    1
    46    21    28    1
    47    21    37    1
    48    22    24    1
    49    22    65    1
    50    22    66    1
    51    23    30    1
    52    23    38    1
    53    23    39    1
    54    24    67    1
    55    24    68    1
    56    25    34    1
    57    25    69    1
    58    25    70    1
    59    26    29    1
    60    26    35    2
    61    27    35    1
    62    27    71    1
    63    27    72    1
    64    28    36    1
    65    28    73    1
    66    28    74    1
    67    29    32    1
    68    29    40    1
    69    29    75    1
    70    30    34    1
    71    30    76    1
    72    31    77    1
    73    31    78    1
    74    31    79    1
    75    32    36    1
    76    32    41    1
    77    32    43    1
    78    33    82    1
    79    33    83    1
    80    33    84    1
    81    34    80    1
    82    34    81    1
    83    35    85    1
    84    36    86    1
    85    36    87    1
    86    37    88    1
    87    37    89    1
    88    37    90    1
    89    38    91    1
    90    38    92    1
    91    38    93    1
    92    39    94    1
    93    39    95    1
    94    39    96    1
    95    40    44    1
    96    40    97    1
    97    40    98    1
    98    41    42    1
    99    41    99    1
   100    41   100    1
   101    42    44    1
   102    42   101    1
   103    42   102    1
   104    44    46    2
   105    45    47    1
   106    45   103    1
   107    46   104    1
   108    46   105    1
   109    47    48    1
   110    47   106    1
   111    48    50    1
   112    48   108    1
   113    49    50    1
   114    49   109    1
   115    49   110    1
   116    50   111    1
   117    51    53    1
   118    51   112    1
   119    52    54    1
   120    52   114    1
   121    53    55    1
   122    53   115    1
   123    54    58    1
   124    54   116    1
   125    55    57    1
   126    55   117    1
   127    56    57    1
   128    56    61    1
   129    56   118    1
   130    57   119    1
   131    58    60    1
   132    58   120    1
   133    59    60    1
   134    59    62    1
   135    59   121    1
   136    60   122    1
   137    61   124    1
   138    61   125    1
   139    61   126    1
   140    62   129    1
   141    62   130    1
