@<TRIPOS>MOLECULE
IMPHY015702
 81 85 0 0 0
SMALL
GASTEIGER

@<TRIPOS>ATOM
      1 O           2.5357   -3.2936    0.0000 O.3     1  UNL1       -0.3912
      2 O           5.3307    0.2587    0.0000 O.2     1  UNL1       -0.2923
      3 O          11.5367    1.9031    0.0000 O.3     1  UNL1       -0.3907
      4 O           9.7088    3.6669    0.0000 O.3     1  UNL1       -0.4802
      5 O          11.2187    2.8183    0.0000 O.2     1  UNL1       -0.2503
      6 C           7.0628   -1.7413    0.0000 C.3     1  UNL1       -0.0127
      7 C           5.2868   -1.7481    0.0000 C.3     1  UNL1       -0.0182
      8 C           7.9288   -1.2413    0.0000 C.3     1  UNL1       -0.0043
      9 C           6.1968   -1.2413    0.0000 C.3     1  UNL1        0.0333
     10 C           5.2787   -2.7897    0.0000 C.3     1  UNL1       -0.0274
     11 C           7.0789   -2.7828    0.0000 C.3     1  UNL1       -0.0459
     12 C           7.9288   -0.2413    0.0000 C.2     1  UNL1       -0.0562
     13 C           6.1808   -3.3106    0.0000 C.3     1  UNL1       -0.0486
     14 C           8.8228    0.2934    0.0000 C.3     1  UNL1       -0.0124
     15 C           4.3433   -3.3395    0.0000 C.3     1  UNL1       -0.0056
     16 C           9.7288   -0.2205    0.0000 C.3     1  UNL1       -0.0231
     17 C           8.8228   -1.7760    0.0000 C.3     1  UNL1       -0.0429
     18 C           4.3599   -1.1841    0.0000 C.3     1  UNL1       -0.0443
     19 C           9.7288   -1.2621    0.0000 C.3     1  UNL1       -0.0462
     20 C           6.1968   -0.2413    0.0000 C.2     1  UNL1        0.1602
     21 C           7.7056   -2.5073    0.0000 C.3     1  UNL1       -0.0581
     22 C           3.4037   -2.7970    0.0000 C.3     1  UNL1        0.0606
     23 C           5.2945   -0.7482    0.0000 C.3     1  UNL1       -0.0586
     24 C           3.4120   -1.7120    0.0000 C.3     1  UNL1       -0.0258
     25 C           8.2709   -2.1810    0.0000 C.3     1  UNL1       -0.0553
     26 C           8.7977    1.3781    0.0000 C.3     1  UNL1       -0.0280
     27 C           7.0628    0.2587    0.0000 C.2     1  UNL1       -0.0188
     28 C          10.6726    0.3148    0.0000 C.3     1  UNL1       -0.0199
     29 C           9.7288    1.9350    0.0000 C.3     1  UNL1        0.0911
     30 C          10.6726    1.3998    0.0000 C.3     1  UNL1        0.0712
     31 C           3.8467   -4.2074    0.0000 C.3     1  UNL1       -0.0572
     32 C           4.8466   -4.2036    0.0000 C.3     1  UNL1       -0.0572
     33 C          10.5987   -0.7138    0.0000 C.3     1  UNL1       -0.0589
     34 C           9.2188    2.7952    0.0000 C.3     1  UNL1       -0.0470
     35 C          10.2188    2.8067    0.0000 C.2     1  UNL1        0.3132
     36 H           6.9329   -0.8163    0.0000 H       1  UNL1        0.0392
     37 H           5.2820   -3.6397    0.0000 H       1  UNL1        0.0312
     38 H           7.2969   -3.3632    0.0000 H       1  UNL1        0.0271
     39 H           7.6880   -2.6673    0.0000 H       1  UNL1        0.0271
     40 H           9.5522    0.7297    0.0000 H       1  UNL1        0.0351
     41 H           5.7835   -3.7865    0.0000 H       1  UNL1        0.0268
     42 H           6.5818   -3.7834    0.0000 H       1  UNL1        0.0268
     43 H           8.4182   -2.2457    0.0000 H       1  UNL1        0.0274
     44 H           9.2164   -2.2550    0.0000 H       1  UNL1        0.0274
     45 H           4.7681   -0.7174    0.0000 H       1  UNL1        0.0272
     46 H           3.9700   -0.7020    0.0000 H       1  UNL1        0.0272
     47 H           9.9379   -1.8458    0.0000 H       1  UNL1        0.0271
     48 H          10.3397   -1.1560    0.0000 H       1  UNL1        0.0271
     49 H           7.2306   -2.9059    0.0000 H       1  UNL1        0.0236
     50 H           8.1041   -2.9823    0.0000 H       1  UNL1        0.0236
     51 H           8.1805   -2.1088    0.0000 H       1  UNL1        0.0236
     52 H           2.8686   -2.4839    0.0000 H       1  UNL1        0.0599
     53 H           5.9145   -0.7529    0.0000 H       1  UNL1        0.0235
     54 H           5.2993   -0.1282    0.0000 H       1  UNL1        0.0235
     55 H           4.6745   -0.7434    0.0000 H       1  UNL1        0.0235
     56 H           3.2075   -1.1267    0.0000 H       1  UNL1        0.0290
     57 H           2.8004   -1.8134    0.0000 H       1  UNL1        0.0290
     58 H           7.6884   -2.3931    0.0000 H       1  UNL1        0.0238
     59 H           8.4830   -2.7635    0.0000 H       1  UNL1        0.0238
     60 H           8.8535   -1.9688    0.0000 H       1  UNL1        0.0238
     61 H           8.5752    1.9568    0.0000 H       1  UNL1        0.0282
     62 H           8.1894    1.2579    0.0000 H       1  UNL1        0.0282
     63 H           7.0628    0.8787    0.0000 H       1  UNL1        0.0652
     64 H          10.8817   -0.2689    0.0000 H       1  UNL1        0.0296
     65 H          11.2835    0.4209    0.0000 H       1  UNL1        0.0296
     66 H          10.6690    2.0197    0.0000 H       1  UNL1        0.0604
     67 H          10.2928   -1.2531    0.0000 H       1  UNL1        0.0235
     68 H          11.1380   -1.0196    0.0000 H       1  UNL1        0.0235
     69 H          10.9045   -0.1745    0.0000 H       1  UNL1        0.0235
     70 H           3.3085   -3.8995    0.0000 H       1  UNL1        0.0236
     71 H           3.5387   -4.7455    0.0000 H       1  UNL1        0.0236
     72 H           4.3848   -4.5153    0.0000 H       1  UNL1        0.0236
     73 H           4.3109   -4.5156    0.0000 H       1  UNL1        0.0236
     74 H           5.1587   -4.7393    0.0000 H       1  UNL1        0.0236
     75 H           5.3824   -3.8915    0.0000 H       1  UNL1        0.0236
     76 H           9.7522    3.1114    0.0000 H       1  UNL1        0.0241
     77 H           8.9027    3.3285    0.0000 H       1  UNL1        0.0241
     78 H           8.6855    2.4790    0.0000 H       1  UNL1        0.0241
     79 H           2.0000   -2.9816    0.0000 H       1  UNL1        0.2098
     80 H          12.0748    1.5952    0.0000 H       1  UNL1        0.2098
     81 H          10.0126    4.2074    0.0000 H       1  UNL1        0.2951
@<TRIPOS>BOND
     1    22     1    1
     2     1    79    1
     3     2    20    2
     4    30     3    1
     5     3    80    1
     6     4    35    1
     7     4    81    1
     8     5    35    2
     9     6     8    1
    10     6     9    1
    11     6    11    1
    12     6    21    1
    13     7     9    1
    14     7    10    1
    15     7    18    1
    16     7    23    1
    17     8    12    1
    18     8    17    1
    19     8    25    1
    20     9    20    1
    21     9    36    1
    22    10    13    1
    23    10    15    1
    24    10    37    1
    25    11    13    1
    26    11    38    1
    27    11    39    1
    28    12    14    1
    29    12    27    2
    30    13    41    1
    31    13    42    1
    32    14    16    1
    33    14    26    1
    34    14    40    1
    35    15    22    1
    36    15    31    1
    37    15    32    1
    38    16    19    1
    39    16    28    1
    40    16    33    1
    41    17    19    1
    42    17    43    1
    43    17    44    1
    44    18    24    1
    45    18    45    1
    46    18    46    1
    47    19    47    1
    48    19    48    1
    49    20    27    1
    50    21    49    1
    51    21    50    1
    52    21    51    1
    53    22    24    1
    54    22    52    1
    55    23    53    1
    56    23    54    1
    57    23    55    1
    58    24    56    1
    59    24    57    1
    60    25    58    1
    61    25    59    1
    62    25    60    1
    63    26    29    1
    64    26    61    1
    65    26    62    1
    66    27    63    1
    67    28    30    1
    68    28    64    1
    69    28    65    1
    70    29    30    1
    71    29    34    1
    72    29    35    1
    73    30    66    1
    74    31    70    1
    75    31    71    1
    76    31    72    1
    77    32    73    1
    78    32    74    1
    79    32    75    1
    80    33    67    1
    81    33    68    1
    82    33    69    1
    83    34    76    1
    84    34    77    1
    85    34    78    1
