@<TRIPOS>MOLECULE
IMPHY002832
 86 91 0 0 0
SMALL
GASTEIGER

@<TRIPOS>ATOM
      1 O           6.2140   -1.4080    0.0000 O.2     1  UNL1       -0.2916
      2 O           4.2032   -5.4007    0.0000 O.3     1  UNL1       -0.5064
      3 O           3.3008   -0.2835    0.0000 O.3     1  UNL1       -0.5056
      4 O           6.7793   -1.2022    0.0000 O.3     1  UNL1       -0.5064
      5 O           9.7060   -4.4426    0.0000 O.3     1  UNL1       -0.4815
      6 O           7.9460   -1.4080    0.0000 O.3     1  UNL1       -0.5054
      7 O           7.4583   -6.5855    0.0000 O.3     1  UNL1       -0.5066
      8 O           3.0001    1.4223    0.0000 O.2     1  UNL1       -0.2872
      9 O           2.3985    4.8337    0.0000 O.3     1  UNL1       -0.5061
     10 O           5.0522    7.0604    0.0000 O.3     1  UNL1       -0.5066
     11 C           5.2292   -2.5816    0.0000 C.3     1  UNL1        0.0399
     12 C           4.8872   -3.5213    0.0000 C.3     1  UNL1        0.0019
     13 C           4.5864   -1.8155    0.0000 C.3     1  UNL1        0.0198
     14 C           3.9024   -3.6950    0.0000 C.3     1  UNL1       -0.0244
     15 C           3.2596   -2.9289    0.0000 C.2     1  UNL1       -0.0753
     16 C           3.6016   -1.9891    0.0000 C.2     1  UNL1       -0.0767
     17 C           5.5301   -4.2874    0.0000 C.ar    1  UNL1       -0.0016
     18 C           6.2140   -2.4080    0.0000 C.2     1  UNL1        0.1712
     19 C           4.9284   -0.8759    0.0000 C.ar    1  UNL1        0.0436
     20 C           2.2748   -3.1025    0.0000 C.3     1  UNL1       -0.0437
     21 C           7.0800   -2.9080    0.0000 C.ar    1  UNL1        0.0599
     22 C           5.1880   -5.2271    0.0000 C.ar    1  UNL1        0.1238
     23 C           4.2856   -0.1098    0.0000 C.ar    1  UNL1        0.1348
     24 C           6.5148   -4.1137    0.0000 C.ar    1  UNL1       -0.0514
     25 C           5.9132   -0.7022    0.0000 C.ar    1  UNL1        0.1241
     26 C           7.9460   -2.4080    0.0000 C.ar    1  UNL1        0.1379
     27 C           4.6277    0.8299    0.0000 C.ar    1  UNL1        0.0635
     28 C           7.0800   -3.9080    0.0000 C.ar    1  UNL1       -0.0442
     29 C           5.8307   -5.9931    0.0000 C.ar    1  UNL1        0.0216
     30 C           7.1576   -4.8797    0.0000 C.ar    1  UNL1       -0.0197
     31 C           6.2552    0.2375    0.0000 C.ar    1  UNL1       -0.0190
     32 C           8.8121   -2.9080    0.0000 C.ar    1  UNL1        0.0586
     33 C           5.6125    1.0035    0.0000 C.ar    1  UNL1       -0.0440
     34 C           6.8155   -5.8194    0.0000 C.ar    1  UNL1        0.1203
     35 C           8.8121   -3.9080    0.0000 C.ar    1  UNL1        0.1324
     36 C           7.9460   -4.4080    0.0000 C.ar    1  UNL1       -0.0184
     37 C          10.6121   -3.9288    0.0000 C.3     1  UNL1        0.1235
     38 C           9.7060   -2.3733    0.0000 C.2     1  UNL1       -0.0478
     39 C           3.9849    1.5959    0.0000 C.2     1  UNL1        0.1896
     40 C          10.6121   -2.8871    0.0000 C.2     1  UNL1       -0.0408
     41 C          11.6121   -3.9326    0.0000 C.3     1  UNL1       -0.0215
     42 C          11.1087   -4.7967    0.0000 C.3     1  UNL1       -0.0215
     43 C           4.3269    2.5356    0.0000 C.2     1  UNL1       -0.0136
     44 C           3.6841    3.3016    0.0000 C.2     1  UNL1       -0.0475
     45 C           4.0261    4.2413    0.0000 C.ar    1  UNL1        0.0168
     46 C           3.3833    5.0074    0.0000 C.ar    1  UNL1        0.1274
     47 C           5.0109    4.4150    0.0000 C.ar    1  UNL1       -0.0477
     48 C           3.7254    5.9471    0.0000 C.ar    1  UNL1        0.0219
     49 C           5.3530    5.3547    0.0000 C.ar    1  UNL1       -0.0194
     50 C           4.7102    6.1207    0.0000 C.ar    1  UNL1        0.1204
     51 H           5.4413   -1.9990    0.0000 H       1  UNL1        0.0396
     52 H           4.5965   -4.3201    0.0000 H       1  UNL1        0.0360
     53 H           4.0401   -1.1643    0.0000 H       1  UNL1        0.0401
     54 H           3.3654   -4.0049    0.0000 H       1  UNL1        0.0316
     55 H           4.1144   -4.2776    0.0000 H       1  UNL1        0.0316
     56 H           3.2031   -1.5142    0.0000 H       1  UNL1        0.0578
     57 H           2.1671   -2.4919    0.0000 H       1  UNL1        0.0274
     58 H           1.6642   -3.2102    0.0000 H       1  UNL1        0.0274
     59 H           2.3824   -3.7131    0.0000 H       1  UNL1        0.0274
     60 H           6.7268   -3.5311    0.0000 H       1  UNL1        0.0623
     61 H           6.5431   -4.2180    0.0000 H       1  UNL1        0.0627
     62 H           5.6187   -6.5757    0.0000 H       1  UNL1        0.0691
     63 H           7.7681   -4.7721    0.0000 H       1  UNL1        0.0654
     64 H           6.8658    0.3451    0.0000 H       1  UNL1        0.0654
     65 H           5.8245    1.5861    0.0000 H       1  UNL1        0.0627
     66 H           7.9460   -5.0280    0.0000 H       1  UNL1        0.0654
     67 H           3.9912   -5.9833    0.0000 H       1  UNL1        0.2921
     68 H           2.9023    0.1915    0.0000 H       1  UNL1        0.2922
     69 H           7.3162   -0.8922    0.0000 H       1  UNL1        0.2921
     70 H           9.6988   -1.7533    0.0000 H       1  UNL1        0.0624
     71 H          11.1478   -2.5751    0.0000 H       1  UNL1        0.0611
     72 H           8.4830   -1.0980    0.0000 H       1  UNL1        0.2922
     73 H          11.6097   -4.5526    0.0000 H       1  UNL1        0.0271
     74 H          12.2321   -3.9350    0.0000 H       1  UNL1        0.0271
     75 H          11.6145   -3.3126    0.0000 H       1  UNL1        0.0271
     76 H          10.5706   -5.1046    0.0000 H       1  UNL1        0.0271
     77 H          11.4167   -5.3348    0.0000 H       1  UNL1        0.0271
     78 H          11.6469   -4.4888    0.0000 H       1  UNL1        0.0271
     79 H           7.2463   -7.1681    0.0000 H       1  UNL1        0.2921
     80 H           4.9375    2.6433    0.0000 H       1  UNL1        0.0656
     81 H           3.0735    3.1940    0.0000 H       1  UNL1        0.0626
     82 H           5.4095    3.9400    0.0000 H       1  UNL1        0.0626
     83 H           3.3268    6.4220    0.0000 H       1  UNL1        0.0691
     84 H           5.9635    5.4624    0.0000 H       1  UNL1        0.0654
     85 H           2.0000    5.3087    0.0000 H       1  UNL1        0.2922
     86 H           5.6628    7.1681    0.0000 H       1  UNL1        0.2921
@<TRIPOS>BOND
     1     1    18    2
     2     2    22    1
     3     2    67    1
     4     3    23    1
     5     3    68    1
     6     4    25    1
     7     4    69    1
     8     5    35    1
     9     5    37    1
    10     6    26    1
    11     6    72    1
    12     7    34    1
    13     7    79    1
    14     8    39    2
    15     9    46    1
    16     9    85    1
    17    10    50    1
    18    10    86    1
    19    11    12    1
    20    11    13    1
    21    11    18    1
    22    11    51    1
    23    12    14    1
    24    12    17    1
    25    12    52    1
    26    13    16    1
    27    13    19    1
    28    13    53    1
    29    14    15    1
    30    14    54    1
    31    14    55    1
    32    15    16    2
    33    15    20    1
    34    16    56    1
    35    17    22   ar
    36    17    24   ar
    37    18    21    1
    38    19    23   ar
    39    19    25   ar
    40    20    57    1
    41    20    58    1
    42    20    59    1
    43    21    26   ar
    44    21    28   ar
    45    22    29   ar
    46    23    27   ar
    47    24    30   ar
    48    24    60    1
    49    25    31   ar
    50    26    32   ar
    51    27    33   ar
    52    27    39    1
    53    28    36   ar
    54    28    61    1
    55    29    34   ar
    56    29    62    1
    57    30    34   ar
    58    30    63    1
    59    31    33   ar
    60    31    64    1
    61    32    35   ar
    62    32    38    1
    63    33    65    1
    64    35    36   ar
    65    36    66    1
    66    37    40    1
    67    37    41    1
    68    37    42    1
    69    38    40    2
    70    38    70    1
    71    39    43    1
    72    40    71    1
    73    41    73    1
    74    41    74    1
    75    41    75    1
    76    42    76    1
    77    42    77    1
    78    42    78    1
    79    43    44    2
    80    43    80    1
    81    44    45    1
    82    44    81    1
    83    45    46   ar
    84    45    47   ar
    85    46    48   ar
    86    47    49   ar
    87    47    82    1
    88    48    50   ar
    89    48    83    1
    90    49    50   ar
    91    49    84    1
