@<TRIPOS>MOLECULE
IMPHY010482
 47 51 0 0 0
SMALL
GASTEIGER

@<TRIPOS>ATOM
      1 O           7.6789   -0.1588    0.0000 O.3     1  UNL1       -0.4646
      2 O           3.7698    3.0813    0.0000 O.3     1  UNL1       -0.5049
      3 O           6.8129    1.3412    0.0000 O.2     1  UNL1       -0.2453
      4 N           3.3369   -1.4321    0.0000 N.3     1  UNL1       -0.2942
      5 N           4.9022    1.2791    0.0000 N.pl3   1  UNL1       -0.3136
      6 C           4.2620   -0.1588    0.0000 C.3     1  UNL1        0.0527
      7 C           4.2620   -1.1315    0.0000 C.3     1  UNL1        0.0265
      8 C           3.3369    0.1418    0.0000 C.3     1  UNL1       -0.0238
      9 C           5.1045   -1.6179    0.0000 C.3     1  UNL1       -0.0253
     10 C           5.9469   -1.1315    0.0000 C.3     1  UNL1        0.0161
     11 C           5.1045    0.3276    0.0000 C.2     1  UNL1        0.0310
     12 C           2.7652   -0.6451    0.0000 C.3     1  UNL1        0.0007
     13 C           3.5392    0.4921    0.0000 C.ar    1  UNL1       -0.0094
     14 C           4.1101   -2.1799    0.0000 C.3     1  UNL1        0.0209
     15 C           5.9469   -0.1588    0.0000 C.2     1  UNL1        0.0615
     16 C           5.3422   -2.1799    0.0000 C.2     1  UNL1       -0.0521
     17 C           3.9348    1.3808    0.0000 C.ar    1  UNL1        0.0773
     18 C           2.5718    0.3904    0.0000 C.ar    1  UNL1       -0.0556
     19 C           6.8129    0.3412    0.0000 C.2     1  UNL1        0.3370
     20 C           5.8422   -3.0459    0.0000 C.2     1  UNL1       -0.0861
     21 C           3.3630    2.1677    0.0000 C.ar    1  UNL1        0.1382
     22 C           2.0000    1.1774    0.0000 C.ar    1  UNL1       -0.0579
     23 C           2.3956    2.0660    0.0000 C.ar    1  UNL1       -0.0183
     24 C           6.8422   -3.0459    0.0000 C.3     1  UNL1       -0.0465
     25 C           8.5450    0.3412    0.0000 C.3     1  UNL1        0.0820
     26 H           3.7928   -1.8402    0.0000 H       1  UNL1        0.0475
     27 H           3.5891    0.7082    0.0000 H       1  UNL1        0.0290
     28 H           2.8000    0.4518    0.0000 H       1  UNL1        0.0290
     29 H           4.7059   -2.0928    0.0000 H       1  UNL1        0.0290
     30 H           5.5030   -2.0928    0.0000 H       1  UNL1        0.0290
     31 H           6.7680   -1.3513    0.0000 H       1  UNL1        0.0398
     32 H           2.3044   -0.2303    0.0000 H       1  UNL1        0.0427
     33 H           2.3044   -1.0600    0.0000 H       1  UNL1        0.0427
     34 H           3.5767   -2.4958    0.0000 H       1  UNL1        0.0473
     35 H           4.2739   -2.7779    0.0000 H       1  UNL1        0.0473
     36 H           5.2666    1.7807    0.0000 H       1  UNL1        0.1520
     37 H           2.3196   -0.1760    0.0000 H       1  UNL1        0.0621
     38 H           5.5322   -3.5828    0.0000 H       1  UNL1        0.0569
     39 H           1.3834    1.1126    0.0000 H       1  UNL1        0.0619
     40 H           2.0312    2.5676    0.0000 H       1  UNL1        0.0655
     41 H           6.8422   -3.6659    0.0000 H       1  UNL1        0.0272
     42 H           7.4622   -3.0459    0.0000 H       1  UNL1        0.0272
     43 H           6.8422   -2.4259    0.0000 H       1  UNL1        0.0272
     44 H           3.4054    3.5828    0.0000 H       1  UNL1        0.2922
     45 H           8.8550   -0.1957    0.0000 H       1  UNL1        0.0661
     46 H           9.0819    0.6512    0.0000 H       1  UNL1        0.0661
     47 H           8.2350    0.8782    0.0000 H       1  UNL1        0.0661
@<TRIPOS>BOND
     1     1    19    1
     2     1    25    1
     3     2    21    1
     4     2    44    1
     5     3    19    2
     6     4     7    1
     7     4    12    1
     8     4    14    1
     9     5    11    1
    10     5    17    1
    11     5    36    1
    12     6     7    1
    13     6     8    1
    14     6    11    1
    15     6    13    1
    16     7     9    1
    17     7    26    1
    18     8    12    1
    19     8    27    1
    20     8    28    1
    21     9    10    1
    22     9    29    1
    23     9    30    1
    24    10    15    1
    25    10    16    1
    26    10    31    1
    27    11    15    2
    28    12    32    1
    29    12    33    1
    30    13    17   ar
    31    13    18   ar
    32    14    16    1
    33    14    34    1
    34    14    35    1
    35    15    19    1
    36    16    20    2
    37    17    21   ar
    38    18    22   ar
    39    18    37    1
    40    20    24    1
    41    20    38    1
    42    21    23   ar
    43    22    23   ar
    44    22    39    1
    45    23    40    1
    46    24    41    1
    47    24    42    1
    48    24    43    1
    49    25    45    1
    50    25    46    1
    51    25    47    1
