@<TRIPOS>MOLECULE
IMPHY012101
 66 66 0 0 0
SMALL
GASTEIGER

@<TRIPOS>ATOM
      1 O           8.9282   -3.2500    0.0000 O.3     1  UNL1       -0.4611
      2 O          12.3923   -1.2500    0.0000 O.3     1  UNL1       -0.4611
      3 O           9.7942   -1.7500    0.0000 O.2     1  UNL1       -0.2449
      4 O          10.6603   -1.2500    0.0000 O.2     1  UNL1       -0.2449
      5 C           5.4641   -3.2500    0.0000 C.3     1  UNL1       -0.0530
      6 C          14.1244    1.7500    0.0000 C.3     1  UNL1       -0.0530
      7 C           4.5981   -2.7500    0.0000 C.3     1  UNL1       -0.0531
      8 C          14.1244    2.7500    0.0000 C.3     1  UNL1       -0.0531
      9 C           6.3301   -2.7500    0.0000 C.3     1  UNL1       -0.0500
     10 C          13.2583    1.2500    0.0000 C.3     1  UNL1       -0.0500
     11 C           3.7320   -3.2500    0.0000 C.3     1  UNL1       -0.0533
     12 C          14.9904    3.2500    0.0000 C.3     1  UNL1       -0.0533
     13 C           7.1962   -3.2500    0.0000 C.3     1  UNL1       -0.0185
     14 C          13.2583    0.2500    0.0000 C.3     1  UNL1       -0.0185
     15 C           2.8660   -2.7500    0.0000 C.3     1  UNL1       -0.0559
     16 C          14.9904    4.2500    0.0000 C.3     1  UNL1       -0.0559
     17 C           8.0622   -2.7500    0.0000 C.3     1  UNL1        0.0928
     18 C          12.3923   -0.2500    0.0000 C.3     1  UNL1        0.0928
     19 C           2.0000   -3.2500    0.0000 C.3     1  UNL1       -0.0653
     20 C          15.8564    4.7500    0.0000 C.3     1  UNL1       -0.0653
     21 C          10.6603   -3.2500    0.0000 C.ar    1  UNL1        0.0729
     22 C          11.5263   -2.7500    0.0000 C.ar    1  UNL1        0.0729
     23 C           9.7942   -2.7500    0.0000 C.2     1  UNL1        0.3400
     24 C          11.5263   -1.7500    0.0000 C.2     1  UNL1        0.3400
     25 C          10.6603   -4.2500    0.0000 C.ar    1  UNL1       -0.0470
     26 C          12.3923   -3.2500    0.0000 C.ar    1  UNL1       -0.0470
     27 C          11.5263   -4.7500    0.0000 C.ar    1  UNL1       -0.0609
     28 C          12.3923   -4.2500    0.0000 C.ar    1  UNL1       -0.0609
     29 H           5.0656   -3.7250    0.0000 H       1  UNL1        0.0265
     30 H           5.8626   -3.7250    0.0000 H       1  UNL1        0.0265
     31 H          14.3364    1.1674    0.0000 H       1  UNL1        0.0265
     32 H          14.7349    1.8577    0.0000 H       1  UNL1        0.0265
     33 H           4.9966   -2.2750    0.0000 H       1  UNL1        0.0265
     34 H           4.1996   -2.2750    0.0000 H       1  UNL1        0.0265
     35 H          13.9123    3.3326    0.0000 H       1  UNL1        0.0265
     36 H          13.5138    2.6423    0.0000 H       1  UNL1        0.0265
     37 H           6.7287   -2.2750    0.0000 H       1  UNL1        0.0266
     38 H           5.9316   -2.2750    0.0000 H       1  UNL1        0.0266
     39 H          13.0463    1.8326    0.0000 H       1  UNL1        0.0266
     40 H          12.6477    1.1423    0.0000 H       1  UNL1        0.0266
     41 H           3.3335   -3.7250    0.0000 H       1  UNL1        0.0265
     42 H           4.1306   -3.7250    0.0000 H       1  UNL1        0.0265
     43 H          15.2024    2.6674    0.0000 H       1  UNL1        0.0265
     44 H          15.6010    3.3577    0.0000 H       1  UNL1        0.0265
     45 H           6.7976   -3.7250    0.0000 H       1  UNL1        0.0298
     46 H           7.5947   -3.7250    0.0000 H       1  UNL1        0.0298
     47 H          13.4704   -0.3326    0.0000 H       1  UNL1        0.0298
     48 H          13.8689    0.3577    0.0000 H       1  UNL1        0.0298
     49 H           3.2646   -2.2750    0.0000 H       1  UNL1        0.0263
     50 H           2.4675   -2.2750    0.0000 H       1  UNL1        0.0263
     51 H          14.7783    4.8326    0.0000 H       1  UNL1        0.0263
     52 H          14.3798    4.1423    0.0000 H       1  UNL1        0.0263
     53 H           8.4607   -2.2750    0.0000 H       1  UNL1        0.0697
     54 H           7.6636   -2.2750    0.0000 H       1  UNL1        0.0697
     55 H          12.1803    0.3326    0.0000 H       1  UNL1        0.0697
     56 H          11.7817   -0.3577    0.0000 H       1  UNL1        0.0697
     57 H           1.6900   -2.7131    0.0000 H       1  UNL1        0.0230
     58 H           1.4631   -3.5600    0.0000 H       1  UNL1        0.0230
     59 H           2.3100   -3.7869    0.0000 H       1  UNL1        0.0230
     60 H          16.1664    4.2131    0.0000 H       1  UNL1        0.0230
     61 H          16.3933    5.0600    0.0000 H       1  UNL1        0.0230
     62 H          15.5464    5.2869    0.0000 H       1  UNL1        0.0230
     63 H          10.1233   -4.5600    0.0000 H       1  UNL1        0.0626
     64 H          12.9292   -2.9400    0.0000 H       1  UNL1        0.0626
     65 H          11.5263   -5.3700    0.0000 H       1  UNL1        0.0618
     66 H          12.9292   -4.5600    0.0000 H       1  UNL1        0.0618
@<TRIPOS>BOND
     1     1    17    1
     2     1    23    1
     3     2    18    1
     4     2    24    1
     5     3    23    2
     6     4    24    2
     7     5     7    1
     8     5     9    1
     9     5    29    1
    10     5    30    1
    11     6     8    1
    12     6    10    1
    13     6    31    1
    14     6    32    1
    15     7    11    1
    16     7    33    1
    17     7    34    1
    18     8    12    1
    19     8    35    1
    20     8    36    1
    21     9    13    1
    22     9    37    1
    23     9    38    1
    24    10    14    1
    25    10    39    1
    26    10    40    1
    27    11    15    1
    28    11    41    1
    29    11    42    1
    30    12    16    1
    31    12    43    1
    32    12    44    1
    33    13    17    1
    34    13    45    1
    35    13    46    1
    36    14    18    1
    37    14    47    1
    38    14    48    1
    39    15    19    1
    40    15    49    1
    41    15    50    1
    42    16    20    1
    43    16    51    1
    44    16    52    1
    45    17    53    1
    46    17    54    1
    47    18    55    1
    48    18    56    1
    49    19    57    1
    50    19    58    1
    51    19    59    1
    52    20    60    1
    53    20    61    1
    54    20    62    1
    55    21    22   ar
    56    21    23    1
    57    21    25   ar
    58    22    24    1
    59    22    26   ar
    60    25    27   ar
    61    25    63    1
    62    26    28   ar
    63    26    64    1
    64    27    28   ar
    65    27    65    1
    66    28    66    1
