@<TRIPOS>MOLECULE
IMPHY004812
 128 133 0 0 0
SMALL
GASTEIGER

@<TRIPOS>ATOM
      1 O           8.2737   -1.1279    0.0000 O.3     1  UNL1       -0.3451
      2 O           7.3742    4.4380    0.0000 O.3     1  UNL1       -0.3915
      3 O          11.9187   -0.0969    0.0000 O.3     1  UNL1       -0.3912
      4 O           4.3029    3.8707    0.0000 O.3     1  UNL1       -0.3886
      5 O           6.5417   -1.1279    0.0000 O.3     1  UNL1       -0.3405
      6 O           8.2737   -3.1279    0.0000 O.3     1  UNL1       -0.3378
      7 O           6.5417   -4.1279    0.0000 O.3     1  UNL1       -0.3864
      8 O           4.8096   -3.1279    0.0000 O.3     1  UNL1       -0.3865
      9 O           7.4077   -4.6279    0.0000 O.3     1  UNL1       -0.3405
     10 O           3.9436   -1.6279    0.0000 O.3     1  UNL1       -0.3924
     11 O          10.0058   -4.1279    0.0000 O.3     1  UNL1       -0.3841
     12 O          10.0058   -6.1279    0.0000 O.3     1  UNL1       -0.3864
     13 O           8.2737   -7.1279    0.0000 O.3     1  UNL1       -0.3865
     14 O           5.6757   -5.6279    0.0000 O.3     1  UNL1       -0.3924
     15 C           7.3857    1.4380    0.0000 C.3     1  UNL1       -0.0206
     16 C           6.5178    1.9346    0.0000 C.3     1  UNL1       -0.0208
     17 C           8.2498    1.9413    0.0000 C.3     1  UNL1       -0.0269
     18 C           9.1618    1.4380    0.0000 C.3     1  UNL1       -0.0228
     19 C           6.5139    2.9346    0.0000 C.3     1  UNL1       -0.0036
     20 C           9.1738    0.3964    0.0000 C.3     1  UNL1       -0.0014
     21 C           7.3737    0.3964    0.0000 C.3     1  UNL1       -0.0200
     22 C           8.2460    2.9413    0.0000 C.3     1  UNL1       -0.0227
     23 C           5.5665    3.2357    0.0000 C.3     1  UNL1       -0.0067
     24 C           7.3780    3.4380    0.0000 C.3     1  UNL1        0.0592
     25 C           8.2737   -0.1279    0.0000 C.3     1  UNL1        0.0662
     26 C           5.5727    1.6263    0.0000 C.3     1  UNL1       -0.0464
     27 C          10.1113   -0.1497    0.0000 C.3     1  UNL1       -0.0032
     28 C           4.9860    2.4287    0.0000 C.3     1  UNL1       -0.0467
     29 C          10.0864    2.0056    0.0000 C.3     1  UNL1       -0.0446
     30 C           6.7459    0.6695    0.0000 C.3     1  UNL1       -0.0587
     31 C           6.1794    0.9936    0.0000 C.3     1  UNL1       -0.0587
     32 C           9.1502    2.4379    0.0000 C.3     1  UNL1       -0.0589
     33 C          11.0489    0.3964    0.0000 C.3     1  UNL1        0.0607
     34 C          11.0363    1.4813    0.0000 C.3     1  UNL1       -0.0258
     35 C           5.2522    4.1850    0.0000 C.3     1  UNL1        0.0668
     36 C          10.6113   -1.0157    0.0000 C.3     1  UNL1       -0.0571
     37 C           9.6113   -1.0157    0.0000 C.3     1  UNL1       -0.0571
     38 C           4.9379    5.1344    0.0000 C.3     1  UNL1       -0.0206
     39 C           6.2015    4.4994    0.0000 C.3     1  UNL1       -0.0358
     40 C           7.4077   -1.6279    0.0000 C.3     1  UNL1        0.1886
     41 C           3.9586    5.3368    0.0000 C.3     1  UNL1       -0.0319
     42 C           7.4077   -2.6279    0.0000 C.3     1  UNL1        0.1406
     43 C           6.5417   -3.1279    0.0000 C.3     1  UNL1        0.1144
     44 C           5.6757   -1.6279    0.0000 C.3     1  UNL1        0.1130
     45 C           3.6443    6.2861    0.0000 C.2     1  UNL1       -0.0852
     46 C           5.6757   -2.6279    0.0000 C.3     1  UNL1        0.1119
     47 C           4.8096   -1.1279    0.0000 C.3     1  UNL1        0.0730
     48 C           2.6650    6.4886    0.0000 C.2     1  UNL1       -0.0796
     49 C           8.2737   -4.1279    0.0000 C.3     1  UNL1        0.1885
     50 C           9.1398   -4.6279    0.0000 C.3     1  UNL1        0.1341
     51 C           2.3506    7.4379    0.0000 C.3     1  UNL1       -0.0440
     52 C           2.0000    5.7417    0.0000 C.3     1  UNL1       -0.0440
     53 C           9.1398   -5.6279    0.0000 C.3     1  UNL1        0.1141
     54 C           7.4077   -5.6279    0.0000 C.3     1  UNL1        0.1130
     55 C           8.2737   -6.1279    0.0000 C.3     1  UNL1        0.1119
     56 C           6.5417   -6.1279    0.0000 C.3     1  UNL1        0.0730
     57 H           8.9810    2.3748    0.0000 H       1  UNL1        0.0312
     58 H           6.4207    3.7795    0.0000 H       1  UNL1        0.0335
     59 H           9.1738   -0.4536    0.0000 H       1  UNL1        0.0337
     60 H           6.7641    0.5096    0.0000 H       1  UNL1        0.0296
     61 H           7.1579   -0.1848    0.0000 H       1  UNL1        0.0296
     62 H           8.8570    2.8360    0.0000 H       1  UNL1        0.0293
     63 H           8.4558    3.5247    0.0000 H       1  UNL1        0.0293
     64 H           4.7263    3.3644    0.0000 H       1  UNL1        0.0332
     65 H           7.9137    3.7500    0.0000 H       1  UNL1        0.0596
     66 H           8.8113   -0.4368    0.0000 H       1  UNL1        0.0600
     67 H           5.0366    1.3150    0.0000 H       1  UNL1        0.0271
     68 H           5.8260    1.0603    0.0000 H       1  UNL1        0.0271
     69 H           4.5236    2.8417    0.0000 H       1  UNL1        0.0269
     70 H           4.5268    2.0122    0.0000 H       1  UNL1        0.0269
     71 H          10.4745    2.4892    0.0000 H       1  UNL1        0.0271
     72 H           9.6764    2.4707    0.0000 H       1  UNL1        0.0271
     73 H           6.2694    1.0662    0.0000 H       1  UNL1        0.0235
     74 H           6.3492    0.1930    0.0000 H       1  UNL1        0.0235
     75 H           7.2223    0.2728    0.0000 H       1  UNL1        0.0235
     76 H           5.5960    1.2034    0.0000 H       1  UNL1        0.0235
     77 H           5.9696    0.4102    0.0000 H       1  UNL1        0.0235
     78 H           6.7628    0.7838    0.0000 H       1  UNL1        0.0235
     79 H           9.7701    2.4451    0.0000 H       1  UNL1        0.0235
     80 H           9.1430    3.0579    0.0000 H       1  UNL1        0.0235
     81 H           8.5302    2.4307    0.0000 H       1  UNL1        0.0235
     82 H          11.5828    0.7116    0.0000 H       1  UNL1        0.0599
     83 H          11.6484    1.3823    0.0000 H       1  UNL1        0.0290
     84 H          11.2386    2.0674    0.0000 H       1  UNL1        0.0290
     85 H          10.0744   -1.3257    0.0000 H       1  UNL1        0.0236
     86 H          10.9213   -1.5527    0.0000 H       1  UNL1        0.0236
     87 H          11.1483   -0.7057    0.0000 H       1  UNL1        0.0236
     88 H           9.0744   -0.7057    0.0000 H       1  UNL1        0.0236
     89 H           9.3013   -1.5527    0.0000 H       1  UNL1        0.0236
     90 H          10.1483   -1.3257    0.0000 H       1  UNL1        0.0236
     91 H           7.9099    4.7500    0.0000 H       1  UNL1        0.2098
     92 H           5.5514    5.2241    0.0000 H       1  UNL1        0.0296
     93 H           4.9561    5.7541    0.0000 H       1  UNL1        0.0296
     94 H           6.3964    3.9108    0.0000 H       1  UNL1        0.0257
     95 H           6.7901    4.6942    0.0000 H       1  UNL1        0.0257
     96 H           6.0066    5.0879    0.0000 H       1  UNL1        0.0257
     97 H           7.9446   -1.9379    0.0000 H       1  UNL1        0.0938
     98 H          12.4533    0.2172    0.0000 H       1  UNL1        0.2098
     99 H           3.8398    4.2830    0.0000 H       1  UNL1        0.2102
    100 H           3.3451    5.2471    0.0000 H       1  UNL1        0.0308
    101 H           3.9404    4.7171    0.0000 H       1  UNL1        0.0308
    102 H           7.4077   -3.2479    0.0000 H       1  UNL1        0.0675
    103 H           6.0047   -3.4379    0.0000 H       1  UNL1        0.0648
    104 H           5.6757   -1.0079    0.0000 H       1  UNL1        0.0647
    105 H           4.0565    6.7492    0.0000 H       1  UNL1        0.0571
    106 H           5.1387   -2.3179    0.0000 H       1  UNL1        0.0647
    107 H           5.2082   -0.6529    0.0000 H       1  UNL1        0.0584
    108 H           4.4111   -0.6529    0.0000 H       1  UNL1        0.0584
    109 H           7.7368   -3.8179    0.0000 H       1  UNL1        0.0938
    110 H           6.0047   -4.4379    0.0000 H       1  UNL1        0.2100
    111 H           4.8096   -3.7479    0.0000 H       1  UNL1        0.2100
    112 H           9.6767   -4.9379    0.0000 H       1  UNL1        0.0671
    113 H           2.9392    7.6328    0.0000 H       1  UNL1        0.0274
    114 H           1.5369    6.1540    0.0000 H       1  UNL1        0.0274
    115 H           2.1558    8.0264    0.0000 H       1  UNL1        0.0274
    116 H           1.7621    7.2430    0.0000 H       1  UNL1        0.0274
    117 H           1.5877    5.2786    0.0000 H       1  UNL1        0.0274
    118 H           2.4631    5.3294    0.0000 H       1  UNL1        0.0274
    119 H           3.4067   -1.3179    0.0000 H       1  UNL1        0.2095
    120 H           9.1398   -6.2479    0.0000 H       1  UNL1        0.0648
    121 H           6.8708   -5.3179    0.0000 H       1  UNL1        0.0647
    122 H           7.7368   -6.4379    0.0000 H       1  UNL1        0.0647
    123 H          10.5427   -4.4379    0.0000 H       1  UNL1        0.2101
    124 H           6.1432   -6.6028    0.0000 H       1  UNL1        0.0584
    125 H           6.9402   -6.6028    0.0000 H       1  UNL1        0.0584
    126 H          10.0058   -6.7479    0.0000 H       1  UNL1        0.2100
    127 H           7.7368   -7.4379    0.0000 H       1  UNL1        0.2100
    128 H           5.1387   -5.9379    0.0000 H       1  UNL1        0.2095
@<TRIPOS>BOND
     1    25     1    1
     2    40     1    1
     3    24     2    1
     4     2    91    1
     5    33     3    1
     6     3    98    1
     7    35     4    1
     8     4    99    1
     9     5    40    1
    10     5    44    1
    11    42     6    1
    12    49     6    1
    13    43     7    1
    14     7   110    1
    15    46     8    1
    16     8   111    1
    17     9    49    1
    18     9    54    1
    19    10    47    1
    20    10   119    1
    21    50    11    1
    22    11   123    1
    23    53    12    1
    24    12   126    1
    25    55    13    1
    26    13   127    1
    27    14    56    1
    28    14   128    1
    29    15    16    1
    30    15    17    1
    31    15    21    1
    32    15    30    1
    33    16    19    1
    34    16    26    1
    35    16    31    1
    36    17    18    1
    37    17    22    1
    38    17    57    1
    39    18    20    1
    40    18    29    1
    41    18    32    1
    42    19    23    1
    43    19    24    1
    44    19    58    1
    45    20    25    1
    46    20    27    1
    47    20    59    1
    48    21    25    1
    49    21    60    1
    50    21    61    1
    51    22    24    1
    52    22    62    1
    53    22    63    1
    54    23    28    1
    55    23    35    1
    56    23    64    1
    57    24    65    1
    58    25    66    1
    59    26    28    1
    60    26    67    1
    61    26    68    1
    62    27    33    1
    63    27    36    1
    64    27    37    1
    65    28    69    1
    66    28    70    1
    67    29    34    1
    68    29    71    1
    69    29    72    1
    70    30    73    1
    71    30    74    1
    72    30    75    1
    73    31    76    1
    74    31    77    1
    75    31    78    1
    76    32    79    1
    77    32    80    1
    78    32    81    1
    79    33    34    1
    80    33    82    1
    81    34    83    1
    82    34    84    1
    83    35    38    1
    84    35    39    1
    85    36    85    1
    86    36    86    1
    87    36    87    1
    88    37    88    1
    89    37    89    1
    90    37    90    1
    91    38    41    1
    92    38    92    1
    93    38    93    1
    94    39    94    1
    95    39    95    1
    96    39    96    1
    97    40    42    1
    98    40    97    1
    99    41    45    1
   100    41   100    1
   101    41   101    1
   102    42    43    1
   103    42   102    1
   104    43    46    1
   105    43   103    1
   106    44    46    1
   107    44    47    1
   108    44   104    1
   109    45    48    2
   110    45   105    1
   111    46   106    1
   112    47   107    1
   113    47   108    1
   114    48    51    1
   115    48    52    1
   116    49    50    1
   117    49   109    1
   118    50    53    1
   119    50   112    1
   120    51   113    1
   121    51   115    1
   122    51   116    1
   123    52   114    1
   124    52   117    1
   125    52   118    1
   126    53    55    1
   127    53   120    1
   128    54    55    1
   129    54    56    1
   130    54   121    1
   131    55   122    1
   132    56   124    1
   133    56   125    1
