@<TRIPOS>MOLECULE
IMPHY012634
 33 33 0 0 0
SMALL
GASTEIGER

@<TRIPOS>ATOM
      1 S           6.1974   -0.7694    0.0000 S.2     1  UNL1       -0.0981
      2 C           7.9575   -0.4907    0.0000 C.3     1  UNL1       -0.0214
      3 C           4.4374   -0.4907    0.0000 C.3     1  UNL1       -0.0214
      4 C           8.7006    0.1785    0.0000 C.3     1  UNL1       -0.0488
      5 C           3.6942    0.1785    0.0000 C.3     1  UNL1       -0.0488
      6 C           7.0064   -0.1816    0.0000 C.ar    1  UNL1       -0.0099
      7 C           5.3884   -0.1816    0.0000 C.ar    1  UNL1       -0.0099
      8 C           9.6517   -0.1305    0.0000 C.3     1  UNL1       -0.0556
      9 C           2.7431   -0.1305    0.0000 C.3     1  UNL1       -0.0556
     10 C           6.6974    0.7694    0.0000 C.ar    1  UNL1       -0.0513
     11 C           5.6974    0.7694    0.0000 C.ar    1  UNL1       -0.0513
     12 C          10.3948    0.5386    0.0000 C.3     1  UNL1       -0.0653
     13 C           2.0000    0.5386    0.0000 C.3     1  UNL1       -0.0653
     14 H           7.6664   -1.0381    0.0000 H       1  UNL1        0.0318
     15 H           8.4461   -0.8724    0.0000 H       1  UNL1        0.0318
     16 H           3.9488   -0.8724    0.0000 H       1  UNL1        0.0318
     17 H           4.7284   -1.0381    0.0000 H       1  UNL1        0.0318
     18 H           8.9917    0.7259    0.0000 H       1  UNL1        0.0268
     19 H           8.2121    0.5602    0.0000 H       1  UNL1        0.0268
     20 H           4.1828    0.5602    0.0000 H       1  UNL1        0.0268
     21 H           3.4031    0.7259    0.0000 H       1  UNL1        0.0268
     22 H           9.3606   -0.6780    0.0000 H       1  UNL1        0.0263
     23 H          10.1403   -0.5122    0.0000 H       1  UNL1        0.0263
     24 H           2.2546   -0.5122    0.0000 H       1  UNL1        0.0263
     25 H           3.0342   -0.6780    0.0000 H       1  UNL1        0.0263
     26 H           7.0618    1.2710    0.0000 H       1  UNL1        0.0626
     27 H           5.3330    1.2710    0.0000 H       1  UNL1        0.0626
     28 H          10.8097    0.0778    0.0000 H       1  UNL1        0.0230
     29 H          10.8556    0.9535    0.0000 H       1  UNL1        0.0230
     30 H           9.9800    0.9993    0.0000 H       1  UNL1        0.0230
     31 H           2.4149    0.9993    0.0000 H       1  UNL1        0.0230
     32 H           1.5392    0.9535    0.0000 H       1  UNL1        0.0230
     33 H           1.5851    0.0778    0.0000 H       1  UNL1        0.0230
@<TRIPOS>BOND
     1     1     6   ar
     2     1     7   ar
     3     2     4    1
     4     2     6    1
     5     2    14    1
     6     2    15    1
     7     3     5    1
     8     3     7    1
     9     3    16    1
    10     3    17    1
    11     4     8    1
    12     4    18    1
    13     4    19    1
    14     5     9    1
    15     5    20    1
    16     5    21    1
    17     6    10   ar
    18     7    11   ar
    19     8    12    1
    20     8    22    1
    21     8    23    1
    22     9    13    1
    23     9    24    1
    24     9    25    1
    25    10    11   ar
    26    10    26    1
    27    11    27    1
    28    12    28    1
    29    12    29    1
    30    12    30    1
    31    13    31    1
    32    13    32    1
    33    13    33    1
