@<TRIPOS>MOLECULE
IMPHY003466
 44 45 0 0 0
SMALL
GASTEIGER

@<TRIPOS>ATOM
      1 O           4.2690    0.1550    0.0000 O.3     1  UNL1       -0.3405
      2 O           6.0010    0.1550    0.0000 O.3     1  UNL1       -0.3440
      3 O           4.2690   -2.8450    0.0000 O.3     1  UNL1       -0.3864
      4 O           2.5369   -1.8450    0.0000 O.3     1  UNL1       -0.3865
      5 O           6.0010   -1.8450    0.0000 O.3     1  UNL1       -0.3841
      6 O           2.5369    1.1550    0.0000 O.3     1  UNL1       -0.3924
      7 O           9.4651    1.1550    0.0000 O.3     1  UNL1       -0.5046
      8 O           8.5991   -0.3450    0.0000 O.3     1  UNL1       -0.3903
      9 N           7.7331    3.1550    0.0000 N.ar    1  UNL1       -0.2562
     10 C           4.2690   -1.8450    0.0000 C.3     1  UNL1        0.1141
     11 C           3.4030   -1.3450    0.0000 C.3     1  UNL1        0.1119
     12 C           5.1350   -1.3450    0.0000 C.3     1  UNL1        0.1341
     13 C           3.4030   -0.3450    0.0000 C.3     1  UNL1        0.1130
     14 C           5.1350   -0.3450    0.0000 C.3     1  UNL1        0.1883
     15 C           2.5369    0.1550    0.0000 C.3     1  UNL1        0.0730
     16 C           6.0010    1.1550    0.0000 C.3     1  UNL1        0.0776
     17 C           6.8671    1.6550    0.0000 C.ar    1  UNL1        0.0051
     18 C           7.7331    1.1550    0.0000 C.ar    1  UNL1        0.0278
     19 C           6.8671    2.6550    0.0000 C.ar    1  UNL1        0.0338
     20 C           8.5991    1.6550    0.0000 C.ar    1  UNL1        0.1434
     21 C           7.7331    0.1550    0.0000 C.3     1  UNL1        0.0731
     22 C           8.5991    2.6550    0.0000 C.ar    1  UNL1        0.0798
     23 C           9.4651    3.1550    0.0000 C.3     1  UNL1       -0.0188
     24 H           4.8059   -2.1550    0.0000 H       1  UNL1        0.0648
     25 H           3.4030   -1.9650    0.0000 H       1  UNL1        0.0647
     26 H           5.6720   -1.0350    0.0000 H       1  UNL1        0.0671
     27 H           3.4030    0.2750    0.0000 H       1  UNL1        0.0647
     28 H           5.1350    0.2750    0.0000 H       1  UNL1        0.0938
     29 H           1.9264    0.2627    0.0000 H       1  UNL1        0.0584
     30 H           2.3249   -0.4276    0.0000 H       1  UNL1        0.0584
     31 H           3.7320   -3.1550    0.0000 H       1  UNL1        0.2100
     32 H           2.0000   -1.5350    0.0000 H       1  UNL1        0.2100
     33 H           6.5380   -1.5350    0.0000 H       1  UNL1        0.2101
     34 H           5.7890    1.7376    0.0000 H       1  UNL1        0.0611
     35 H           5.3905    1.0473    0.0000 H       1  UNL1        0.0611
     36 H           2.0000    1.4650    0.0000 H       1  UNL1        0.2095
     37 H           6.3301    2.9650    0.0000 H       1  UNL1        0.0833
     38 H           7.1225    0.2627    0.0000 H       1  UNL1        0.0608
     39 H           7.5210   -0.4276    0.0000 H       1  UNL1        0.0608
     40 H           9.7751    2.6181    0.0000 H       1  UNL1        0.0294
     41 H          10.0021    3.4650    0.0000 H       1  UNL1        0.0294
     42 H           9.1551    3.6919    0.0000 H       1  UNL1        0.0294
     43 H          10.0021    1.4650    0.0000 H       1  UNL1        0.2922
     44 H           8.5991   -0.9650    0.0000 H       1  UNL1        0.2098
@<TRIPOS>BOND
     1     1    13    1
     2     1    14    1
     3    14     2    1
     4     2    16    1
     5    10     3    1
     6     3    31    1
     7    11     4    1
     8     4    32    1
     9    12     5    1
    10     5    33    1
    11     6    15    1
    12     6    36    1
    13     7    20    1
    14     7    43    1
    15     8    21    1
    16     8    44    1
    17     9    19   ar
    18     9    22   ar
    19    10    11    1
    20    10    12    1
    21    10    24    1
    22    11    13    1
    23    11    25    1
    24    12    14    1
    25    12    26    1
    26    13    15    1
    27    13    27    1
    28    14    28    1
    29    15    29    1
    30    15    30    1
    31    16    17    1
    32    16    34    1
    33    16    35    1
    34    17    18   ar
    35    17    19   ar
    36    18    20   ar
    37    18    21    1
    38    19    37    1
    39    20    22   ar
    40    21    38    1
    41    21    39    1
    42    22    23    1
    43    23    40    1
    44    23    41    1
    45    23    42    1
