@<TRIPOS>MOLECULE
IMPHY003923
 25 24 0 0 0
SMALL
GASTEIGER

@<TRIPOS>ATOM
      1 O           2.8660   -0.2500    0.0000 O.3     1  UNL1       -0.4648
      2 O           3.7320   -1.7500    0.0000 O.2     1  UNL1       -0.2456
      3 C          10.6603    1.2500    0.0000 C.3     1  UNL1       -0.0450
      4 C           9.7942    1.7500    0.0000 C.3     1  UNL1        0.0098
      5 C          11.5263    1.7500    0.0000 C.3     1  UNL1       -0.0644
      6 C           8.9282    1.2500    0.0000 C.1     1  UNL1       -0.0884
      7 C           8.0622    0.7500    0.0000 C.1     1  UNL1       -0.0145
      8 C           4.5981   -0.2500    0.0000 C.2     1  UNL1        0.0307
      9 C           3.7320   -0.7500    0.0000 C.2     1  UNL1        0.3323
     10 C           5.4641   -0.7500    0.0000 C.2     1  UNL1       -0.0039
     11 C           2.0000   -0.7500    0.0000 C.3     1  UNL1        0.0820
     12 C           7.1962    0.2500    0.0000 C.1     1  UNL1       -0.0101
     13 C           6.3301   -0.2500    0.0000 C.1     1  UNL1       -0.0600
     14 H          10.2617    0.7751    0.0000 H       1  UNL1        0.0272
     15 H          11.0588    0.7751    0.0000 H       1  UNL1        0.0272
     16 H          10.1928    2.2250    0.0000 H       1  UNL1        0.0398
     17 H           9.3957    2.2250    0.0000 H       1  UNL1        0.0398
     18 H          11.8363    1.2131    0.0000 H       1  UNL1        0.0230
     19 H          12.0632    2.0600    0.0000 H       1  UNL1        0.0230
     20 H          11.2163    2.2869    0.0000 H       1  UNL1        0.0230
     21 H           4.5981    0.3700    0.0000 H       1  UNL1        0.0695
     22 H           5.4641   -1.3700    0.0000 H       1  UNL1        0.0714
     23 H           1.6900   -0.2131    0.0000 H       1  UNL1        0.0661
     24 H           1.4631   -1.0600    0.0000 H       1  UNL1        0.0661
     25 H           2.3100   -1.2869    0.0000 H       1  UNL1        0.0661
@<TRIPOS>BOND
     1     1     9    1
     2     1    11    1
     3     2     9    2
     4     3     4    1
     5     3     5    1
     6     3    14    1
     7     3    15    1
     8     4     6    1
     9     4    16    1
    10     4    17    1
    11     5    18    1
    12     5    19    1
    13     5    20    1
    14     6     7    3
    15     7    12    1
    16     8     9    1
    17     8    10    2
    18     8    21    1
    19    10    13    1
    20    10    22    1
    21    11    23    1
    22    11    24    1
    23    11    25    1
    24    12    13    3
