@<TRIPOS>MOLECULE
IMPHY007080
 92 91 0 0 0
SMALL
GASTEIGER

@<TRIPOS>ATOM
      1 C           8.9282    0.2500    0.0000 C.3     1  UNL1       -0.0531
      2 C           8.0622    0.7500    0.0000 C.3     1  UNL1       -0.0531
      3 C           9.7942    0.7500    0.0000 C.3     1  UNL1       -0.0531
      4 C           7.1962    0.2500    0.0000 C.3     1  UNL1       -0.0531
      5 C          10.6603    0.2500    0.0000 C.3     1  UNL1       -0.0531
      6 C          11.5263    0.7500    0.0000 C.3     1  UNL1       -0.0531
      7 C           6.3301    0.7500    0.0000 C.3     1  UNL1       -0.0530
      8 C          12.3923    0.2500    0.0000 C.3     1  UNL1       -0.0531
      9 C          13.2583    0.7500    0.0000 C.3     1  UNL1       -0.0531
     10 C           5.4641    0.2500    0.0000 C.3     1  UNL1       -0.0528
     11 C          14.1244    0.2500    0.0000 C.3     1  UNL1       -0.0531
     12 C          14.9904    0.7500    0.0000 C.3     1  UNL1       -0.0531
     13 C           4.5981    0.7500    0.0000 C.3     1  UNL1       -0.0505
     14 C          15.8564    0.2500    0.0000 C.3     1  UNL1       -0.0531
     15 C           3.7320    0.2500    0.0000 C.3     1  UNL1       -0.0441
     16 C          16.7224    0.7500    0.0000 C.3     1  UNL1       -0.0531
     17 C          17.5885    0.2500    0.0000 C.3     1  UNL1       -0.0531
     18 C          18.4545    0.7500    0.0000 C.3     1  UNL1       -0.0531
     19 C          19.3205    0.2500    0.0000 C.3     1  UNL1       -0.0531
     20 C          20.1865    0.7500    0.0000 C.3     1  UNL1       -0.0531
     21 C          21.0526    0.2500    0.0000 C.3     1  UNL1       -0.0531
     22 C          21.9186    0.7500    0.0000 C.3     1  UNL1       -0.0531
     23 C           2.8660    0.7500    0.0000 C.3     1  UNL1       -0.0533
     24 C          22.7846    0.2500    0.0000 C.3     1  UNL1       -0.0531
     25 C           3.7320   -0.7500    0.0000 C.3     1  UNL1       -0.0624
     26 C          23.6506    0.7500    0.0000 C.3     1  UNL1       -0.0531
     27 C          24.5167    0.2500    0.0000 C.3     1  UNL1       -0.0533
     28 C           2.0000    0.2500    0.0000 C.3     1  UNL1       -0.0650
     29 C          25.3827    0.7500    0.0000 C.3     1  UNL1       -0.0559
     30 C          26.2487    0.2500    0.0000 C.3     1  UNL1       -0.0653
     31 H           8.5297   -0.2249    0.0000 H       1  UNL1        0.0265
     32 H           9.3267   -0.2249    0.0000 H       1  UNL1        0.0265
     33 H           8.4607    1.2250    0.0000 H       1  UNL1        0.0265
     34 H           7.6636    1.2250    0.0000 H       1  UNL1        0.0265
     35 H          10.1928    1.2250    0.0000 H       1  UNL1        0.0265
     36 H           9.3957    1.2250    0.0000 H       1  UNL1        0.0265
     37 H           6.7976   -0.2249    0.0000 H       1  UNL1        0.0265
     38 H           7.5947   -0.2249    0.0000 H       1  UNL1        0.0265
     39 H          10.2617   -0.2249    0.0000 H       1  UNL1        0.0265
     40 H          11.0588   -0.2249    0.0000 H       1  UNL1        0.0265
     41 H          11.9248    1.2250    0.0000 H       1  UNL1        0.0265
     42 H          11.1278    1.2250    0.0000 H       1  UNL1        0.0265
     43 H           6.7287    1.2250    0.0000 H       1  UNL1        0.0265
     44 H           5.9316    1.2250    0.0000 H       1  UNL1        0.0265
     45 H          11.9938   -0.2249    0.0000 H       1  UNL1        0.0265
     46 H          12.7908   -0.2249    0.0000 H       1  UNL1        0.0265
     47 H          13.6569    1.2250    0.0000 H       1  UNL1        0.0265
     48 H          12.8598    1.2250    0.0000 H       1  UNL1        0.0265
     49 H           5.0656   -0.2249    0.0000 H       1  UNL1        0.0265
     50 H           5.8626   -0.2249    0.0000 H       1  UNL1        0.0265
     51 H          13.7258   -0.2249    0.0000 H       1  UNL1        0.0265
     52 H          14.5229   -0.2249    0.0000 H       1  UNL1        0.0265
     53 H           4.9966    1.2250    0.0000 H       1  UNL1        0.0268
     54 H           4.1996    1.2250    0.0000 H       1  UNL1        0.0268
     55 H          15.3889    1.2250    0.0000 H       1  UNL1        0.0265
     56 H          14.5919    1.2250    0.0000 H       1  UNL1        0.0265
     57 H          15.4579   -0.2249    0.0000 H       1  UNL1        0.0265
     58 H          16.2549   -0.2249    0.0000 H       1  UNL1        0.0265
     59 H           4.2690   -0.0600    0.0000 H       1  UNL1        0.0298
     60 H          17.1210    1.2250    0.0000 H       1  UNL1        0.0265
     61 H          16.3239    1.2250    0.0000 H       1  UNL1        0.0265
     62 H          17.1899   -0.2249    0.0000 H       1  UNL1        0.0265
     63 H          17.9870   -0.2249    0.0000 H       1  UNL1        0.0265
     64 H          18.8530    1.2250    0.0000 H       1  UNL1        0.0265
     65 H          18.0560    1.2250    0.0000 H       1  UNL1        0.0265
     66 H          18.9220   -0.2249    0.0000 H       1  UNL1        0.0265
     67 H          19.7190   -0.2249    0.0000 H       1  UNL1        0.0265
     68 H          20.5851    1.2250    0.0000 H       1  UNL1        0.0265
     69 H          19.7880    1.2250    0.0000 H       1  UNL1        0.0265
     70 H          20.6540   -0.2249    0.0000 H       1  UNL1        0.0265
     71 H          21.4511   -0.2249    0.0000 H       1  UNL1        0.0265
     72 H          22.3171    1.2250    0.0000 H       1  UNL1        0.0265
     73 H          21.5201    1.2250    0.0000 H       1  UNL1        0.0265
     74 H           3.2646    1.2250    0.0000 H       1  UNL1        0.0265
     75 H           2.4675    1.2250    0.0000 H       1  UNL1        0.0265
     76 H          22.3861   -0.2249    0.0000 H       1  UNL1        0.0265
     77 H          23.1831   -0.2249    0.0000 H       1  UNL1        0.0265
     78 H           3.1120   -0.7500    0.0000 H       1  UNL1        0.0232
     79 H           3.7320   -1.3700    0.0000 H       1  UNL1        0.0232
     80 H           4.3520   -0.7500    0.0000 H       1  UNL1        0.0232
     81 H          24.0492    1.2250    0.0000 H       1  UNL1        0.0265
     82 H          23.2521    1.2250    0.0000 H       1  UNL1        0.0265
     83 H          24.1181   -0.2249    0.0000 H       1  UNL1        0.0265
     84 H          24.9152   -0.2249    0.0000 H       1  UNL1        0.0265
     85 H           1.6900    0.7869    0.0000 H       1  UNL1        0.0230
     86 H           1.4631   -0.0600    0.0000 H       1  UNL1        0.0230
     87 H           2.3100   -0.2869    0.0000 H       1  UNL1        0.0230
     88 H          25.7812    1.2250    0.0000 H       1  UNL1        0.0263
     89 H          24.9842    1.2250    0.0000 H       1  UNL1        0.0263
     90 H          25.9387   -0.2869    0.0000 H       1  UNL1        0.0230
     91 H          26.7856   -0.0600    0.0000 H       1  UNL1        0.0230
     92 H          26.5587    0.7869    0.0000 H       1  UNL1        0.0230
@<TRIPOS>BOND
     1     1     2    1
     2     1     3    1
     3     1    31    1
     4     1    32    1
     5     2     4    1
     6     2    33    1
     7     2    34    1
     8     3     5    1
     9     3    35    1
    10     3    36    1
    11     4     7    1
    12     4    37    1
    13     4    38    1
    14     5     6    1
    15     5    39    1
    16     5    40    1
    17     6     8    1
    18     6    41    1
    19     6    42    1
    20     7    10    1
    21     7    43    1
    22     7    44    1
    23     8     9    1
    24     8    45    1
    25     8    46    1
    26     9    11    1
    27     9    47    1
    28     9    48    1
    29    10    13    1
    30    10    49    1
    31    10    50    1
    32    11    12    1
    33    11    51    1
    34    11    52    1
    35    12    14    1
    36    12    55    1
    37    12    56    1
    38    13    15    1
    39    13    53    1
    40    13    54    1
    41    14    16    1
    42    14    57    1
    43    14    58    1
    44    15    23    1
    45    15    25    1
    46    15    59    1
    47    16    17    1
    48    16    60    1
    49    16    61    1
    50    17    18    1
    51    17    62    1
    52    17    63    1
    53    18    19    1
    54    18    64    1
    55    18    65    1
    56    19    20    1
    57    19    66    1
    58    19    67    1
    59    20    21    1
    60    20    68    1
    61    20    69    1
    62    21    22    1
    63    21    70    1
    64    21    71    1
    65    22    24    1
    66    22    72    1
    67    22    73    1
    68    23    28    1
    69    23    74    1
    70    23    75    1
    71    24    26    1
    72    24    76    1
    73    24    77    1
    74    25    78    1
    75    25    79    1
    76    25    80    1
    77    26    27    1
    78    26    81    1
    79    26    82    1
    80    27    29    1
    81    27    83    1
    82    27    84    1
    83    28    85    1
    84    28    86    1
    85    28    87    1
    86    29    30    1
    87    29    88    1
    88    29    89    1
    89    30    90    1
    90    30    91    1
    91    30    92    1
