@<TRIPOS>MOLECULE
IMPHY007613
 62 68 0 0 0
SMALL
GASTEIGER

@<TRIPOS>ATOM
      1 O           5.4275   -1.7756    0.0000 O.3     1  UNL1       -0.3512
      2 O           3.3389    1.8951    0.0000 O.3     1  UNL1       -0.3344
      3 O           8.1221   -2.3172    0.0000 O.3     1  UNL1       -0.4539
      4 O           4.6907    2.8090    0.0000 O.3     1  UNL1       -0.4311
      5 O           4.5896   -2.3034    0.0000 O.2     1  UNL1       -0.2967
      6 O           7.2161   -3.8380    0.0000 O.2     1  UNL1       -0.2478
      7 O          10.5529   -0.4109    0.0000 O.2     1  UNL1       -0.4706
      8 O           6.0560    3.8380    0.0000 O.2     1  UNL1       -0.2456
      9 C           6.3380   -1.2688    0.0000 C.3     1  UNL1        0.1283
     10 C           5.4720   -0.7688    0.0000 C.3     1  UNL1        0.0625
     11 C           5.4720    0.2312    0.0000 C.3     1  UNL1       -0.0109
     12 C           7.2040   -0.7688    0.0000 C.3     1  UNL1        0.0422
     13 C           4.5780    0.7659    0.0000 C.3     1  UNL1        0.0613
     14 C           6.3220   -2.3103    0.0000 C.3     1  UNL1        0.1861
     15 C           3.6720    0.2520    0.0000 C.3     1  UNL1        0.0095
     16 C           6.3380    0.7312    0.0000 C.3     1  UNL1       -0.0475
     17 C           7.2040    0.2312    0.0000 C.3     1  UNL1       -0.0408
     18 C           4.5780   -1.3034    0.0000 C.2     1  UNL1        0.1427
     19 C           8.1140   -1.2756    0.0000 C.3     1  UNL1        0.1391
     20 C           3.6720   -0.7896    0.0000 C.3     1  UNL1        0.0129
     21 C           4.3680    1.7798    0.0000 C.3     1  UNL1        0.2152
     22 C           6.1221   -1.8945    0.0000 C.3     1  UNL1       -0.0497
     23 C           2.9097    0.9528    0.0000 C.3     1  UNL1        0.0722
     24 C           8.0701   -0.2688    0.0000 C.3     1  UNL1       -0.0531
     25 C           7.2200   -2.8380    0.0000 C.2     1  UNL1        0.3398
     26 C           5.6374    0.9684    0.0000 C.2     1  UNL1       -0.0646
     27 C           8.9742   -0.7656    0.0000 C.ar    1  UNL1        0.0310
     28 C           2.0000    1.3681    0.0000 C.3     1  UNL1       -0.0356
     29 C           2.2336    0.2160    0.0000 C.3     1  UNL1       -0.0356
     30 C           6.1435    2.0702    0.0000 C.2     1  UNL1        0.0194
     31 C           5.5855    2.9557    0.0000 C.2     1  UNL1        0.3338
     32 C           9.0672    0.2300    0.0000 C.ar    1  UNL1       -0.0172
     33 C           9.8924   -1.1618    0.0000 C.ar    1  UNL1        0.0984
     34 C          10.0429    0.4492    0.0000 C.ar    1  UNL1        0.0921
     35 H           6.2081   -0.1938    0.0000 H       1  UNL1        0.0321
     36 H           5.8886   -3.0415    0.0000 H       1  UNL1        0.0743
     37 H           2.8937   -0.0897    0.0000 H       1  UNL1        0.0343
     38 H           6.7366    1.2062    0.0000 H       1  UNL1        0.0269
     39 H           5.9395    1.2062    0.0000 H       1  UNL1        0.0269
     40 H           7.8146    0.1236    0.0000 H       1  UNL1        0.0273
     41 H           7.4161    0.8138    0.0000 H       1  UNL1        0.0273
     42 H           8.6539   -1.5804    0.0000 H       1  UNL1        0.0793
     43 H           3.0611   -0.6835    0.0000 H       1  UNL1        0.0346
     44 H           3.4629   -1.3733    0.0000 H       1  UNL1        0.0346
     45 H           3.9038    2.4919    0.0000 H       1  UNL1        0.1066
     46 H           5.5852   -2.2046    0.0000 H       1  UNL1        0.0240
     47 H           6.4322   -2.4314    0.0000 H       1  UNL1        0.0240
     48 H           6.6590   -1.5845    0.0000 H       1  UNL1        0.0240
     49 H           8.3801   -0.8057    0.0000 H       1  UNL1        0.0237
     50 H           8.6070    0.0412    0.0000 H       1  UNL1        0.0237
     51 H           7.7601    0.2682    0.0000 H       1  UNL1        0.0237
     52 H           6.0198    0.4804    0.0000 H       1  UNL1        0.0582
     53 H           2.2575    1.9321    0.0000 H       1  UNL1        0.0257
     54 H           1.4360    1.6256    0.0000 H       1  UNL1        0.0257
     55 H           1.7425    0.8041    0.0000 H       1  UNL1        0.0257
     56 H           1.7767    0.6352    0.0000 H       1  UNL1        0.0257
     57 H           1.8144   -0.2408    0.0000 H       1  UNL1        0.0257
     58 H           2.6904   -0.2032    0.0000 H       1  UNL1        0.0257
     59 H           6.7621    2.1110    0.0000 H       1  UNL1        0.0686
     60 H           8.6017    0.6395    0.0000 H       1  UNL1        0.0653
     61 H          10.0283   -1.7667    0.0000 H       1  UNL1        0.1033
     62 H          10.2885    1.0185    0.0000 H       1  UNL1        0.1029
@<TRIPOS>BOND
     1     9     1    1
     2     1    14    1
     3     2    21    1
     4     2    23    1
     5     3    19    1
     6     3    25    1
     7     4    21    1
     8     4    31    1
     9     5    18    2
    10     6    25    2
    11     7    33   ar
    12     7    34   ar
    13     8    31    2
    14     9    10    1
    15     9    12    1
    16     9    14    1
    17    10    11    1
    18    10    18    1
    19    10    22    1
    20    11    13    1
    21    11    16    1
    22    11    35    1
    23    12    17    1
    24    12    19    1
    25    12    24    1
    26    13    15    1
    27    13    21    1
    28    13    26    1
    29    14    25    1
    30    14    36    1
    31    15    20    1
    32    15    23    1
    33    15    37    1
    34    16    17    1
    35    16    38    1
    36    16    39    1
    37    17    40    1
    38    17    41    1
    39    18    20    1
    40    19    27    1
    41    19    42    1
    42    20    43    1
    43    20    44    1
    44    21    45    1
    45    22    46    1
    46    22    47    1
    47    22    48    1
    48    23    28    1
    49    23    29    1
    50    24    49    1
    51    24    50    1
    52    24    51    1
    53    26    30    2
    54    26    52    1
    55    27    32   ar
    56    27    33   ar
    57    28    53    1
    58    28    54    1
    59    28    55    1
    60    29    56    1
    61    29    57    1
    62    29    58    1
    63    30    31    1
    64    30    59    1
    65    32    34   ar
    66    32    60    1
    67    33    61    1
    68    34    62    1
