@<TRIPOS>MOLECULE
IMPHY005254
 55 56 0 0 0
SMALL
GASTEIGER

@<TRIPOS>ATOM
      1 O           6.8671    1.4050    0.0000 O.3     1  UNL1       -0.3405
      2 O           4.2690   -1.0950    0.0000 O.3     1  UNL1       -0.3405
      3 O           6.0010   -1.0950    0.0000 O.3     1  UNL1       -0.3460
      4 O           7.7331    2.9050    0.0000 O.3     1  UNL1       -0.3283
      5 O           7.7331   -1.0950    0.0000 O.3     1  UNL1       -0.3865
      6 O           9.4651   -0.0950    0.0000 O.3     1  UNL1       -0.3864
      7 O           9.4651    1.9050    0.0000 O.3     1  UNL1       -0.3841
      8 O           6.0010   -3.0950    0.0000 O.3     1  UNL1       -0.3841
      9 O           4.2690   -4.0950    0.0000 O.3     1  UNL1       -0.3864
     10 O           2.5369   -3.0950    0.0000 O.3     1  UNL1       -0.3865
     11 O           2.5369   -0.0950    0.0000 O.3     1  UNL1       -0.3924
     12 N           5.1350    4.4050    0.0000 N.1     1  UNL1       -0.1936
     13 C           6.8671    0.4050    0.0000 C.3     1  UNL1        0.1134
     14 C           7.7331   -0.0950    0.0000 C.3     1  UNL1        0.1119
     15 C           8.5991    0.4050    0.0000 C.3     1  UNL1        0.1141
     16 C           8.5991    1.4050    0.0000 C.3     1  UNL1        0.1342
     17 C           5.1350   -2.5950    0.0000 C.3     1  UNL1        0.1341
     18 C           5.1350   -1.5950    0.0000 C.3     1  UNL1        0.1880
     19 C           4.2690   -3.0950    0.0000 C.3     1  UNL1        0.1141
     20 C           3.4030   -2.5950    0.0000 C.3     1  UNL1        0.1119
     21 C           7.7331    1.9050    0.0000 C.3     1  UNL1        0.1898
     22 C           3.4030   -1.5950    0.0000 C.3     1  UNL1        0.1130
     23 C           6.0010   -0.0950    0.0000 C.3     1  UNL1        0.0796
     24 C           2.5369   -1.0950    0.0000 C.3     1  UNL1        0.0730
     25 C           6.8671    3.4050    0.0000 C.3     1  UNL1        0.1521
     26 C           7.3671    4.2710    0.0000 C.3     1  UNL1       -0.0226
     27 C           6.3671    2.5390    0.0000 C.3     1  UNL1       -0.0226
     28 C           6.0010    3.9050    0.0000 C.1     1  UNL1        0.0971
     29 H           6.3301    0.7150    0.0000 H       1  UNL1        0.0647
     30 H           8.2700   -0.4050    0.0000 H       1  UNL1        0.0647
     31 H           9.1360    0.7150    0.0000 H       1  UNL1        0.0648
     32 H           8.5991    2.0250    0.0000 H       1  UNL1        0.0671
     33 H           5.1350   -3.2150    0.0000 H       1  UNL1        0.0671
     34 H           5.1350   -0.9750    0.0000 H       1  UNL1        0.0937
     35 H           3.7320   -3.4050    0.0000 H       1  UNL1        0.0648
     36 H           2.8660   -2.2850    0.0000 H       1  UNL1        0.0647
     37 H           7.1962    2.2150    0.0000 H       1  UNL1        0.0938
     38 H           3.4030   -0.9750    0.0000 H       1  UNL1        0.0647
     39 H           5.7890    0.4876    0.0000 H       1  UNL1        0.0587
     40 H           5.3905   -0.2027    0.0000 H       1  UNL1        0.0587
     41 H           1.9264   -0.9873    0.0000 H       1  UNL1        0.0584
     42 H           2.3249   -1.6776    0.0000 H       1  UNL1        0.0584
     43 H           8.2700   -1.4050    0.0000 H       1  UNL1        0.2100
     44 H          10.0021    0.2150    0.0000 H       1  UNL1        0.2100
     45 H           9.4651    2.5250    0.0000 H       1  UNL1        0.2101
     46 H           6.5380   -2.7850    0.0000 H       1  UNL1        0.2101
     47 H           3.7320   -4.4050    0.0000 H       1  UNL1        0.2100
     48 H           2.0000   -2.7850    0.0000 H       1  UNL1        0.2100
     49 H           7.9040    3.9610    0.0000 H       1  UNL1        0.0267
     50 H           7.6771    4.8080    0.0000 H       1  UNL1        0.0267
     51 H           6.8301    4.5810    0.0000 H       1  UNL1        0.0267
     52 H           5.8301    2.8490    0.0000 H       1  UNL1        0.0267
     53 H           6.0571    2.0020    0.0000 H       1  UNL1        0.0267
     54 H           6.9040    2.2290    0.0000 H       1  UNL1        0.0267
     55 H           2.0000    0.2150    0.0000 H       1  UNL1        0.2095
@<TRIPOS>BOND
     1     1    13    1
     2     1    21    1
     3     2    18    1
     4     2    22    1
     5    18     3    1
     6     3    23    1
     7    21     4    1
     8     4    25    1
     9    14     5    1
    10     5    43    1
    11    15     6    1
    12     6    44    1
    13    16     7    1
    14     7    45    1
    15    17     8    1
    16     8    46    1
    17    19     9    1
    18     9    47    1
    19    20    10    1
    20    10    48    1
    21    11    24    1
    22    11    55    1
    23    12    28    3
    24    13    14    1
    25    13    23    1
    26    13    29    1
    27    14    15    1
    28    14    30    1
    29    15    16    1
    30    15    31    1
    31    16    21    1
    32    16    32    1
    33    17    18    1
    34    17    19    1
    35    17    33    1
    36    18    34    1
    37    19    20    1
    38    19    35    1
    39    20    22    1
    40    20    36    1
    41    21    37    1
    42    22    24    1
    43    22    38    1
    44    23    39    1
    45    23    40    1
    46    24    41    1
    47    24    42    1
    48    25    26    1
    49    25    27    1
    50    25    28    1
    51    26    49    1
    52    26    50    1
    53    26    51    1
    54    27    52    1
    55    27    53    1
    56    27    54    1
