@<TRIPOS>MOLECULE
IMPHY006739
 46 50 0 0 0
SMALL
GASTEIGER

@<TRIPOS>ATOM
      1 O           5.2308    0.3935    0.0000 O.3     1  UNL1       -0.4528
      2 O           2.2862   -0.7071    0.0000 O.3     1  UNL1       -0.3867
      3 O           2.8090    0.9501    0.0000 O.2     1  UNL1       -0.2501
      4 O           6.3076    1.6219    0.0000 O.3     1  UNL1       -0.4804
      5 O           4.5817    1.4764    0.0000 O.2     1  UNL1       -0.2507
      6 C           6.2989   -0.4947    0.0000 C.3     1  UNL1       -0.0050
      7 C           5.9970   -1.3619    0.0000 C.3     1  UNL1        0.0097
      8 C           4.8219   -0.4664    0.0000 C.3     1  UNL1        0.0345
      9 C           5.0849   -1.3404    0.0000 C.3     1  UNL1        0.1397
     10 C           5.5707    0.0545    0.0000 C.3     1  UNL1        0.0704
     11 C           6.9949   -1.3272    0.0000 C.3     1  UNL1       -0.0394
     12 C           3.9046   -0.2503    0.0000 C.3     1  UNL1        0.1017
     13 C           7.1658   -0.1901    0.0000 C.3     1  UNL1       -0.0249
     14 C           8.0478   -1.5897    0.0000 C.3     1  UNL1       -0.0196
     15 C           6.4872   -2.1385    0.0000 C.3     1  UNL1       -0.0452
     16 C           7.3995   -2.2397    0.0000 C.3     1  UNL1       -0.0461
     17 C           7.9434   -0.6771    0.0000 C.2     1  UNL1       -0.0730
     18 C           4.4471   -2.0549    0.0000 C.2     1  UNL1       -0.0418
     19 C           3.2595   -0.9365    0.0000 C.3     1  UNL1        0.0893
     20 C           3.6398    0.3935    0.0000 C.2     1  UNL1        0.3171
     21 C           5.4867    1.0509    0.0000 C.2     1  UNL1        0.3088
     22 C           2.9212   -0.0692    0.0000 C.3     1  UNL1       -0.0462
     23 C           3.5310   -1.8392    0.0000 C.2     1  UNL1       -0.0550
     24 C           8.7470   -0.0820    0.0000 C.2     1  UNL1       -0.0992
     25 H           5.5778   -2.1014    0.0000 H       1  UNL1        0.0348
     26 H           4.3868    0.2639    0.0000 H       1  UNL1        0.0362
     27 H           6.1135    0.3541    0.0000 H       1  UNL1        0.0423
     28 H           7.0378   -1.9457    0.0000 H       1  UNL1        0.0277
     29 H           6.4198   -1.5587    0.0000 H       1  UNL1        0.0277
     30 H           6.8352    0.3344    0.0000 H       1  UNL1        0.0316
     31 H           7.6036    0.2489    0.0000 H       1  UNL1        0.0316
     32 H           8.8505   -1.8692    0.0000 H       1  UNL1        0.0346
     33 H           6.5578   -2.7544    0.0000 H       1  UNL1        0.0270
     34 H           5.9024   -2.3444    0.0000 H       1  UNL1        0.0270
     35 H           7.9250   -2.5688    0.0000 H       1  UNL1        0.0271
     36 H           7.1956   -2.8253    0.0000 H       1  UNL1        0.0271
     37 H           4.6335   -2.6462    0.0000 H       1  UNL1        0.0609
     38 H           2.8346   -1.3880    0.0000 H       1  UNL1        0.0649
     39 H           2.8088   -0.6789    0.0000 H       1  UNL1        0.0241
     40 H           2.3114    0.0432    0.0000 H       1  UNL1        0.0241
     41 H           3.0335    0.5406    0.0000 H       1  UNL1        0.0241
     42 H           3.1061   -2.2907    0.0000 H       1  UNL1        0.0596
     43 H           8.6766    0.5340    0.0000 H       1  UNL1        0.0534
     44 H           9.3157   -0.3290    0.0000 H       1  UNL1        0.0534
     45 H           1.8612   -1.1586    0.0000 H       1  UNL1        0.2102
     46 H           6.2556    2.2397    0.0000 H       1  UNL1        0.2951
@<TRIPOS>BOND
     1     9     1    1
     2     1    20    1
     3    19     2    1
     4     2    45    1
     5     3    20    2
     6     4    21    1
     7     4    46    1
     8     5    21    2
     9     6     7    1
    10     6    10    1
    11     6    11    1
    12     6    13    1
    13     7     9    1
    14     7    15    1
    15     7    25    1
    16     8     9    1
    17     8    10    1
    18     8    12    1
    19     8    26    1
    20     9    18    1
    21    10    21    1
    22    10    27    1
    23    11    14    1
    24    11    28    1
    25    11    29    1
    26    12    19    1
    27    12    20    1
    28    12    22    1
    29    13    17    1
    30    13    30    1
    31    13    31    1
    32    14    16    1
    33    14    17    1
    34    14    32    1
    35    15    16    1
    36    15    33    1
    37    15    34    1
    38    16    35    1
    39    16    36    1
    40    17    24    2
    41    18    23    2
    42    18    37    1
    43    19    23    1
    44    19    38    1
    45    22    39    1
    46    22    40    1
    47    22    41    1
    48    23    42    1
    49    24    43    1
    50    24    44    1
