@<TRIPOS>MOLECULE
IMPHY002810
 25 25 0 0 0
SMALL
GASTEIGER

@<TRIPOS>ATOM
      1 O           4.5981    1.7500    0.0000 O.3     1  UNL1       -0.4914
      2 O           2.8660    0.7500    0.0000 O.3     1  UNL1       -0.4915
      3 O           7.1962   -0.7500    0.0000 O.2     1  UNL1       -0.2924
      4 C           5.4641   -0.7500    0.0000 C.ar    1  UNL1        0.0208
      5 C           4.5981    0.7500    0.0000 C.ar    1  UNL1        0.1621
      6 C           3.7320    0.2500    0.0000 C.ar    1  UNL1        0.1615
      7 C           5.4641    0.2500    0.0000 C.ar    1  UNL1       -0.0058
      8 C           4.5981   -1.2500    0.0000 C.ar    1  UNL1       -0.0476
      9 C           3.7320   -0.7500    0.0000 C.ar    1  UNL1       -0.0156
     10 C           6.3301   -1.2500    0.0000 C.2     1  UNL1        0.1602
     11 C           6.3301   -2.2500    0.0000 C.3     1  UNL1       -0.0014
     12 C           5.4641    2.2500    0.0000 C.3     1  UNL1        0.0790
     13 C           2.0000    0.2500    0.0000 C.3     1  UNL1        0.0790
     14 H           6.0010    0.5600    0.0000 H       1  UNL1        0.0662
     15 H           4.5981   -1.8700    0.0000 H       1  UNL1        0.0626
     16 H           3.1951   -1.0600    0.0000 H       1  UNL1        0.0655
     17 H           5.7101   -2.2500    0.0000 H       1  UNL1        0.0309
     18 H           6.3301   -2.8700    0.0000 H       1  UNL1        0.0309
     19 H           6.9501   -2.2500    0.0000 H       1  UNL1        0.0309
     20 H           5.7741    1.7131    0.0000 H       1  UNL1        0.0660
     21 H           6.0010    2.5600    0.0000 H       1  UNL1        0.0660
     22 H           5.1541    2.7869    0.0000 H       1  UNL1        0.0660
     23 H           1.6900    0.7869    0.0000 H       1  UNL1        0.0660
     24 H           1.4631   -0.0600    0.0000 H       1  UNL1        0.0660
     25 H           2.3100   -0.2869    0.0000 H       1  UNL1        0.0660
@<TRIPOS>BOND
     1     1     5    1
     2     1    12    1
     3     2     6    1
     4     2    13    1
     5     3    10    2
     6     4     7   ar
     7     4     8   ar
     8     4    10    1
     9     5     6   ar
    10     5     7   ar
    11     6     9   ar
    12     7    14    1
    13     8     9   ar
    14     8    15    1
    15     9    16    1
    16    10    11    1
    17    11    17    1
    18    11    18    1
    19    11    19    1
    20    12    20    1
    21    12    21    1
    22    12    22    1
    23    13    23    1
    24    13    24    1
    25    13    25    1
