@<TRIPOS>MOLECULE
IMPHY002124
 49 51 0 0 0
SMALL
GASTEIGER

@<TRIPOS>ATOM
      1 O           4.6660   -2.9386    0.0000 O.2     1  UNL1       -0.2883
      2 O           6.3981   -1.9386    0.0000 O.2     1  UNL1       -0.2836
      3 O           5.5442    2.6307    0.0000 O.3     1  UNL1       -0.5065
      4 C           3.8000   -0.4386    0.0000 C.3     1  UNL1        0.0042
      5 C           3.8000   -1.4386    0.0000 C.3     1  UNL1        0.0399
      6 C           2.9061   -1.9732    0.0000 C.3     1  UNL1       -0.0241
      7 C           2.9061    0.0961    0.0000 C.3     1  UNL1       -0.0429
      8 C           2.0000   -1.4594    0.0000 C.3     1  UNL1       -0.0472
      9 C           2.0000   -0.4178    0.0000 C.3     1  UNL1       -0.0517
     10 C           4.6660    0.0614    0.0000 C.ar    1  UNL1       -0.0264
     11 C           3.8000    0.5614    0.0000 C.3     1  UNL1       -0.0548
     12 C           4.6660   -1.9386    0.0000 C.2     1  UNL1        0.2073
     13 C           2.4161   -2.8450    0.0000 C.3     1  UNL1       -0.0591
     14 C           3.4160   -2.8334    0.0000 C.3     1  UNL1       -0.0591
     15 C           5.5321   -0.4386    0.0000 C.ar    1  UNL1        0.0294
     16 C           5.5321   -1.4386    0.0000 C.2     1  UNL1        0.2287
     17 C           4.6500    1.1029    0.0000 C.ar    1  UNL1       -0.0155
     18 C           6.4421    0.0683    0.0000 C.ar    1  UNL1       -0.0437
     19 C           5.5480    1.6307    0.0000 C.ar    1  UNL1        0.1206
     20 C           6.4501    1.1098    0.0000 C.ar    1  UNL1       -0.0027
     21 C           7.3180    1.6065    0.0000 C.3     1  UNL1       -0.0181
     22 C           8.1821    1.1032    0.0000 C.3     1  UNL1       -0.0585
     23 C           7.3219    2.6065    0.0000 C.3     1  UNL1       -0.0585
     24 H           3.8066   -2.2886    0.0000 H       1  UNL1        0.0396
     25 H           3.3107    0.5659    0.0000 H       1  UNL1        0.0274
     26 H           2.5124    0.5751    0.0000 H       1  UNL1        0.0274
     27 H           1.3891   -1.3533    0.0000 H       1  UNL1        0.0271
     28 H           1.7909   -2.0431    0.0000 H       1  UNL1        0.0271
     29 H           1.7909    0.1659    0.0000 H       1  UNL1        0.0266
     30 H           1.3891   -0.5239    0.0000 H       1  UNL1        0.0266
     31 H           4.4200    0.5614    0.0000 H       1  UNL1        0.0238
     32 H           3.8000    1.1814    0.0000 H       1  UNL1        0.0238
     33 H           3.1800    0.5614    0.0000 H       1  UNL1        0.0238
     34 H           1.8756   -2.5412    0.0000 H       1  UNL1        0.0235
     35 H           2.1123   -3.3855    0.0000 H       1  UNL1        0.0235
     36 H           2.9566   -3.1488    0.0000 H       1  UNL1        0.0235
     37 H           2.8827   -3.1496    0.0000 H       1  UNL1        0.0235
     38 H           3.7322   -3.3668    0.0000 H       1  UNL1        0.0235
     39 H           3.9494   -2.5173    0.0000 H       1  UNL1        0.0235
     40 H           4.1095    1.4067    0.0000 H       1  UNL1        0.0657
     41 H           6.9754   -0.2479    0.0000 H       1  UNL1        0.0629
     42 H           7.8562    1.9144    0.0000 H       1  UNL1        0.0345
     43 H           5.0060    2.9386    0.0000 H       1  UNL1        0.2921
     44 H           7.9419    2.6041    0.0000 H       1  UNL1        0.0235
     45 H           7.3243    3.2265    0.0000 H       1  UNL1        0.0235
     46 H           6.7019    2.6089    0.0000 H       1  UNL1        0.0235
     47 H           7.8701    0.5674    0.0000 H       1  UNL1        0.0235
     48 H           8.7179    0.7911    0.0000 H       1  UNL1        0.0235
     49 H           8.4942    1.6389    0.0000 H       1  UNL1        0.0235
@<TRIPOS>BOND
     1     1    12    2
     2     2    16    2
     3     3    19    1
     4     3    43    1
     5     4     5    1
     6     4     7    1
     7     4    10    1
     8     4    11    1
     9     5     6    1
    10     5    12    1
    11     5    24    1
    12     6     8    1
    13     6    13    1
    14     6    14    1
    15     7     9    1
    16     7    25    1
    17     7    26    1
    18     8     9    1
    19     8    27    1
    20     8    28    1
    21     9    29    1
    22     9    30    1
    23    10    15   ar
    24    10    17   ar
    25    11    31    1
    26    11    32    1
    27    11    33    1
    28    12    16    1
    29    13    34    1
    30    13    35    1
    31    13    36    1
    32    14    37    1
    33    14    38    1
    34    14    39    1
    35    15    16    1
    36    15    18   ar
    37    17    19   ar
    38    17    40    1
    39    18    20   ar
    40    18    41    1
    41    19    20   ar
    42    20    21    1
    43    21    22    1
    44    21    23    1
    45    21    42    1
    46    22    47    1
    47    22    48    1
    48    22    49    1
    49    23    44    1
    50    23    45    1
    51    23    46    1
