@<TRIPOS>MOLECULE
IMPHY000153
 61 64 0 0 0
SMALL
GASTEIGER

@<TRIPOS>ATOM
      1 O           4.2690   -0.6907    0.0000 O.3     1  UNL1       -0.3330
      2 O           4.2690   -3.6907    0.0000 O.3     1  UNL1       -0.4548
      3 O           6.0010   -2.6907    0.0000 O.3     1  UNL1       -0.4513
      4 O           6.0010   -0.6907    0.0000 O.3     1  UNL1       -0.4520
      5 O           2.5369   -2.6907    0.0000 O.3     1  UNL1       -0.3854
      6 O           6.8671    1.8093    0.0000 O.2     1  UNL1       -0.4507
      7 O           2.5369   -3.6907    0.0000 O.2     1  UNL1       -0.2512
      8 O           5.1350   -4.1907    0.0000 O.2     1  UNL1       -0.2512
      9 O           4.2690    0.3093    0.0000 O.2     1  UNL1       -0.2830
     10 O           3.3648    1.8062    0.0000 O.3     1  UNL1       -0.5058
     11 O           5.1229    4.8786    0.0000 O.3     1  UNL1       -0.5065
     12 O          10.3312   -1.1907    0.0000 O.3     1  UNL1       -0.5068
     13 C           4.2690   -2.6907    0.0000 C.3     1  UNL1        0.1737
     14 C           3.4030   -2.1907    0.0000 C.3     1  UNL1        0.1216
     15 C           5.1350   -2.1907    0.0000 C.3     1  UNL1        0.2038
     16 C           3.4030   -1.1907    0.0000 C.3     1  UNL1        0.0894
     17 C           5.1350   -1.1907    0.0000 C.3     1  UNL1        0.2434
     18 C           2.5369   -0.6907    0.0000 C.3     1  UNL1       -0.0360
     19 C           6.0010    0.3093    0.0000 C.ar    1  UNL1        0.2138
     20 C           3.4030   -4.1907    0.0000 C.2     1  UNL1        0.3044
     21 C           6.0010   -3.6907    0.0000 C.2     1  UNL1        0.3045
     22 C           6.8671    0.8093    0.0000 C.ar    1  UNL1        0.1809
     23 C           5.1350    0.8093    0.0000 C.ar    1  UNL1        0.2382
     24 C           5.1350    1.8093    0.0000 C.ar    1  UNL1        0.1092
     25 C           3.4030   -5.1907    0.0000 C.3     1  UNL1        0.0332
     26 C           6.8671   -4.1907    0.0000 C.3     1  UNL1        0.0332
     27 C           6.0010    2.3093    0.0000 C.ar    1  UNL1        0.1465
     28 C           7.7331    0.3093    0.0000 C.ar    1  UNL1        0.0213
     29 C           4.2250    2.3162    0.0000 C.ar    1  UNL1        0.1348
     30 C           6.0171    3.3508    0.0000 C.ar    1  UNL1        0.0231
     31 C           8.5991    0.8093    0.0000 C.ar    1  UNL1       -0.0475
     32 C           7.7331   -0.6907    0.0000 C.ar    1  UNL1       -0.0475
     33 C           4.2170    3.3578    0.0000 C.ar    1  UNL1        0.0223
     34 C           5.1191    3.8786    0.0000 C.ar    1  UNL1        0.1239
     35 C           9.4651    0.3093    0.0000 C.ar    1  UNL1       -0.0195
     36 C           8.5991   -1.1907    0.0000 C.ar    1  UNL1       -0.0195
     37 C           9.4651   -0.6907    0.0000 C.ar    1  UNL1        0.1169
     38 H           4.8059   -3.0007    0.0000 H       1  UNL1        0.0801
     39 H           3.4030   -2.8107    0.0000 H       1  UNL1        0.0658
     40 H           5.6720   -1.8807    0.0000 H       1  UNL1        0.0837
     41 H           3.4030   -0.5707    0.0000 H       1  UNL1        0.0621
     42 H           5.1350   -0.5707    0.0000 H       1  UNL1        0.1097
     43 H           2.8469   -0.1537    0.0000 H       1  UNL1        0.0255
     44 H           2.0000   -0.3807    0.0000 H       1  UNL1        0.0255
     45 H           2.2269   -1.2276    0.0000 H       1  UNL1        0.0255
     46 H           2.0000   -2.3807    0.0000 H       1  UNL1        0.2101
     47 H           2.7830   -5.1907    0.0000 H       1  UNL1        0.0342
     48 H           3.4030   -5.8107    0.0000 H       1  UNL1        0.0342
     49 H           4.0230   -5.1907    0.0000 H       1  UNL1        0.0342
     50 H           6.5571   -4.7276    0.0000 H       1  UNL1        0.0342
     51 H           7.4040   -4.5007    0.0000 H       1  UNL1        0.0342
     52 H           7.1771   -3.6537    0.0000 H       1  UNL1        0.0342
     53 H           6.5576    3.6546    0.0000 H       1  UNL1        0.0691
     54 H           8.5991    1.4293    0.0000 H       1  UNL1        0.0626
     55 H           7.1962   -1.0007    0.0000 H       1  UNL1        0.0626
     56 H           3.6788    3.6657    0.0000 H       1  UNL1        0.0691
     57 H          10.0021    0.6193    0.0000 H       1  UNL1        0.0654
     58 H           8.5991   -1.8107    0.0000 H       1  UNL1        0.0654
     59 H           2.8243    2.1100    0.0000 H       1  UNL1        0.2922
     60 H           4.5872    5.1907    0.0000 H       1  UNL1        0.2921
     61 H          10.8681   -0.8807    0.0000 H       1  UNL1        0.2921
@<TRIPOS>BOND
     1     1    16    1
     2     1    17    1
     3    13     2    1
     4     2    20    1
     5    15     3    1
     6     3    21    1
     7    17     4    1
     8     4    19    1
     9    14     5    1
    10     5    46    1
    11     6    22   ar
    12     6    27   ar
    13     7    20    2
    14     8    21    2
    15     9    23    2
    16    10    29    1
    17    10    59    1
    18    11    34    1
    19    11    60    1
    20    12    37    1
    21    12    61    1
    22    13    14    1
    23    13    15    1
    24    13    38    1
    25    14    16    1
    26    14    39    1
    27    15    17    1
    28    15    40    1
    29    16    18    1
    30    16    41    1
    31    17    42    1
    32    18    43    1
    33    18    44    1
    34    18    45    1
    35    19    22   ar
    36    19    23   ar
    37    20    25    1
    38    21    26    1
    39    22    28    1
    40    23    24   ar
    41    24    27   ar
    42    24    29   ar
    43    25    47    1
    44    25    48    1
    45    25    49    1
    46    26    50    1
    47    26    51    1
    48    26    52    1
    49    27    30   ar
    50    28    31   ar
    51    28    32   ar
    52    29    33   ar
    53    30    34   ar
    54    30    53    1
    55    31    35   ar
    56    31    54    1
    57    32    36   ar
    58    32    55    1
    59    33    34   ar
    60    33    56    1
    61    35    37   ar
    62    35    57    1
    63    36    37   ar
    64    36    58    1
