@<TRIPOS>MOLECULE
IMPHY013617
 100 102 0 0 0
SMALL
GASTEIGER

@<TRIPOS>ATOM
      1 O           6.0812   -8.5504    0.0000 O.3     1  UNL1       -0.3577
      2 O           2.5369   -8.7457    0.0000 O.3     1  UNL1       -0.3917
      3 O          10.5309    5.6107    0.0000 O.3     1  UNL1       -0.3838
      4 O          10.1648    8.7088    0.0000 O.3     1  UNL1       -0.3917
      5 C           5.1350   -8.2457    0.0000 C.3     1  UNL1        0.0918
      6 C           4.2690   -6.7457    0.0000 C.3     1  UNL1       -0.0088
      7 C           5.1350   -7.2457    0.0000 C.2     1  UNL1       -0.0338
      8 C           4.2690   -8.7457    0.0000 C.3     1  UNL1        0.0061
      9 C           3.4030   -7.2457    0.0000 C.3     1  UNL1       -0.0178
     10 C           3.4030   -8.2457    0.0000 C.3     1  UNL1        0.0589
     11 C           6.0812   -6.9410    0.0000 C.2     1  UNL1       -0.0491
     12 C           6.6648   -7.7457    0.0000 C.3     1  UNL1        0.0994
     13 C           5.1350   -9.2457    0.0000 C.3     1  UNL1       -0.0318
     14 C           3.7690   -5.8797    0.0000 C.3     1  UNL1       -0.0559
     15 C           4.7690   -5.8797    0.0000 C.3     1  UNL1       -0.0559
     16 C           7.6648   -7.7457    0.0000 C.2     1  UNL1       -0.0404
     17 C           8.1648    6.9767    0.0000 C.3     1  UNL1       -0.0014
     18 C           9.6648    6.1107    0.0000 C.3     1  UNL1        0.0943
     19 C           8.6648    7.8428    0.0000 C.3     1  UNL1       -0.0172
     20 C           9.6648    7.8428    0.0000 C.3     1  UNL1        0.0590
     21 C          10.1648    6.9767    0.0000 C.3     1  UNL1        0.0063
     22 C           8.6648    6.1107    0.0000 C.2     1  UNL1        0.0091
     23 C           8.1648   -8.6117    0.0000 C.3     1  UNL1       -0.0408
     24 C           7.2988    7.4767    0.0000 C.3     1  UNL1       -0.0553
     25 C           7.2988    6.4767    0.0000 C.3     1  UNL1       -0.0553
     26 C           8.1648   -6.8797    0.0000 C.2     1  UNL1       -0.0600
     27 C           9.6648    5.1107    0.0000 C.3     1  UNL1       -0.0315
     28 C           8.1648    5.2447    0.0000 C.1     1  UNL1       -0.1170
     29 C           7.6648   -6.0137    0.0000 C.2     1  UNL1       -0.0615
     30 C           7.6648    4.3787    0.0000 C.2     1  UNL1       -0.0165
     31 C           8.1648   -5.1476    0.0000 C.2     1  UNL1       -0.0588
     32 C           8.1648    3.5126    0.0000 C.2     1  UNL1       -0.0429
     33 C           7.6648   -4.2816    0.0000 C.2     1  UNL1       -0.0504
     34 C           9.1648    3.5126    0.0000 C.3     1  UNL1       -0.0391
     35 C           7.6648    2.6466    0.0000 C.2     1  UNL1       -0.0583
     36 C           6.6648   -4.2816    0.0000 C.3     1  UNL1       -0.0397
     37 C           8.1648   -3.4156    0.0000 C.2     1  UNL1       -0.0588
     38 C           8.1648    1.7806    0.0000 C.2     1  UNL1       -0.0612
     39 C           7.6648   -2.5496    0.0000 C.2     1  UNL1       -0.0615
     40 C           7.6648    0.9145    0.0000 C.2     1  UNL1       -0.0588
     41 C           8.1648   -1.6835    0.0000 C.2     1  UNL1       -0.0615
     42 C           8.1648    0.0485    0.0000 C.2     1  UNL1       -0.0504
     43 C           7.6648   -0.8175    0.0000 C.2     1  UNL1       -0.0588
     44 C           9.1648    0.0485    0.0000 C.3     1  UNL1       -0.0397
     45 H           3.8705   -9.2207    0.0000 H       1  UNL1        0.0321
     46 H           4.6675   -9.2207    0.0000 H       1  UNL1        0.0321
     47 H           3.1909   -6.6631    0.0000 H       1  UNL1        0.0298
     48 H           2.7924   -7.3534    0.0000 H       1  UNL1        0.0298
     49 H           3.4030   -8.8657    0.0000 H       1  UNL1        0.0594
     50 H           6.2738   -6.3516    0.0000 H       1  UNL1        0.0601
     51 H           6.9466   -8.2980    0.0000 H       1  UNL1        0.0688
     52 H           4.5150   -9.2457    0.0000 H       1  UNL1        0.0261
     53 H           5.1350   -9.8657    0.0000 H       1  UNL1        0.0261
     54 H           5.7550   -9.2457    0.0000 H       1  UNL1        0.0261
     55 H           4.3059   -5.5697    0.0000 H       1  UNL1        0.0238
     56 H           3.4590   -5.3428    0.0000 H       1  UNL1        0.0238
     57 H           3.2320   -6.1897    0.0000 H       1  UNL1        0.0238
     58 H           5.3059   -6.1897    0.0000 H       1  UNL1        0.0238
     59 H           5.0790   -5.3428    0.0000 H       1  UNL1        0.0238
     60 H           4.2320   -5.5697    0.0000 H       1  UNL1        0.0238
     61 H           2.0000   -8.4357    0.0000 H       1  UNL1        0.2098
     62 H           8.7725    8.4533    0.0000 H       1  UNL1        0.0299
     63 H           8.0822    8.0548    0.0000 H       1  UNL1        0.0299
     64 H          10.2848    7.8428    0.0000 H       1  UNL1        0.0594
     65 H          10.6398    6.5782    0.0000 H       1  UNL1        0.0321
     66 H          10.6398    7.3752    0.0000 H       1  UNL1        0.0321
     67 H           7.6088    8.0137    0.0000 H       1  UNL1        0.0238
     68 H           6.7619    7.7867    0.0000 H       1  UNL1        0.0238
     69 H           6.9888    6.9398    0.0000 H       1  UNL1        0.0238
     70 H           6.9888    7.0137    0.0000 H       1  UNL1        0.0238
     71 H           6.7619    6.1667    0.0000 H       1  UNL1        0.0238
     72 H           7.6088    5.9398    0.0000 H       1  UNL1        0.0238
     73 H           7.6279   -8.9217    0.0000 H       1  UNL1        0.0275
     74 H           8.4748   -9.1487    0.0000 H       1  UNL1        0.0275
     75 H           8.7018   -8.3017    0.0000 H       1  UNL1        0.0275
     76 H           8.7848   -6.8797    0.0000 H       1  UNL1        0.0618
     77 H           9.0448    5.1107    0.0000 H       1  UNL1        0.0261
     78 H           9.6648    4.4907    0.0000 H       1  UNL1        0.0261
     79 H          10.2848    5.1107    0.0000 H       1  UNL1        0.0261
     80 H          11.0678    5.9207    0.0000 H       1  UNL1        0.2106
     81 H           9.8548    9.2457    0.0000 H       1  UNL1        0.2098
     82 H           7.0448   -6.0137    0.0000 H       1  UNL1        0.0618
     83 H           7.0448    4.3787    0.0000 H       1  UNL1        0.0708
     84 H           8.7848   -5.1476    0.0000 H       1  UNL1        0.0620
     85 H           9.1648    2.8926    0.0000 H       1  UNL1        0.0278
     86 H           9.7848    3.5126    0.0000 H       1  UNL1        0.0278
     87 H           9.1648    4.1326    0.0000 H       1  UNL1        0.0278
     88 H           7.0448    2.6466    0.0000 H       1  UNL1        0.0620
     89 H           6.6648   -3.6616    0.0000 H       1  UNL1        0.0278
     90 H           6.0448   -4.2816    0.0000 H       1  UNL1        0.0278
     91 H           6.6648   -4.9016    0.0000 H       1  UNL1        0.0278
     92 H           8.7848   -3.4156    0.0000 H       1  UNL1        0.0620
     93 H           8.7848    1.7806    0.0000 H       1  UNL1        0.0618
     94 H           7.0448   -2.5496    0.0000 H       1  UNL1        0.0618
     95 H           7.0448    0.9145    0.0000 H       1  UNL1        0.0620
     96 H           8.7848   -1.6835    0.0000 H       1  UNL1        0.0618
     97 H           7.0448   -0.8175    0.0000 H       1  UNL1        0.0620
     98 H           9.1648   -0.5715    0.0000 H       1  UNL1        0.0278
     99 H           9.7848    0.0485    0.0000 H       1  UNL1        0.0278
    100 H           9.1648    0.6685    0.0000 H       1  UNL1        0.0278
@<TRIPOS>BOND
     1     1     5    1
     2     1    12    1
     3    10     2    1
     4     2    61    1
     5    18     3    1
     6     3    80    1
     7    20     4    1
     8     4    81    1
     9     5     7    1
    10     5     8    1
    11     5    13    1
    12     6     7    1
    13     6     9    1
    14     6    14    1
    15     6    15    1
    16     7    11    2
    17     8    10    1
    18     8    45    1
    19     8    46    1
    20     9    10    1
    21     9    47    1
    22     9    48    1
    23    10    49    1
    24    11    12    1
    25    11    50    1
    26    12    16    1
    27    12    51    1
    28    13    52    1
    29    13    53    1
    30    13    54    1
    31    14    55    1
    32    14    56    1
    33    14    57    1
    34    15    58    1
    35    15    59    1
    36    15    60    1
    37    16    23    1
    38    16    26    2
    39    17    19    1
    40    17    22    1
    41    17    24    1
    42    17    25    1
    43    18    21    1
    44    18    22    1
    45    18    27    1
    46    19    20    1
    47    19    62    1
    48    19    63    1
    49    20    21    1
    50    20    64    1
    51    21    65    1
    52    21    66    1
    53    22    28    2
    54    23    73    1
    55    23    74    1
    56    23    75    1
    57    24    67    1
    58    24    68    1
    59    24    69    1
    60    25    70    1
    61    25    71    1
    62    25    72    1
    63    26    29    1
    64    26    76    1
    65    27    77    1
    66    27    78    1
    67    27    79    1
    68    28    30    2
    69    29    31    2
    70    29    82    1
    71    30    32    1
    72    30    83    1
    73    31    33    1
    74    31    84    1
    75    32    34    1
    76    32    35    2
    77    33    36    1
    78    33    37    2
    79    34    85    1
    80    34    86    1
    81    34    87    1
    82    35    38    1
    83    35    88    1
    84    36    89    1
    85    36    90    1
    86    36    91    1
    87    37    39    1
    88    37    92    1
    89    38    40    2
    90    38    93    1
    91    39    41    2
    92    39    94    1
    93    40    42    1
    94    40    95    1
    95    41    43    1
    96    41    96    1
    97    42    43    2
    98    42    44    1
    99    43    97    1
   100    44    98    1
   101    44    99    1
   102    44   100    1
