@<TRIPOS>MOLECULE
IMPHY010124
 41 44 0 0 0
SMALL
GASTEIGER

@<TRIPOS>ATOM
      1 O           3.7568   -1.3404    0.0000 O.3     1  UNL1       -0.4233
      2 O           3.7548    1.7244    0.0000 O.3     1  UNL1       -0.4601
      3 O           5.5503   -1.9221    0.0000 O.3     1  UNL1       -0.4220
      4 O           6.4573   -0.6179    0.0000 O.3     1  UNL1       -0.3870
      5 O           6.8802    0.1538    0.0000 O.3     1  UNL1       -0.3797
      6 O           2.4972   -0.0879    0.0000 O.2     1  UNL1       -0.2499
      7 O           7.3011   -1.6542    0.0000 O.2     1  UNL1       -0.2478
      8 O           2.0000    1.4484    0.0000 O.2     1  UNL1       -0.2508
      9 C           5.0605   -0.3967    0.0000 C.3     1  UNL1        0.1296
     10 C           4.2515    0.1911    0.0000 C.3     1  UNL1        0.1325
     11 C           5.8695    0.1911    0.0000 C.3     1  UNL1        0.0908
     12 C           4.5605    1.1422    0.0000 C.3     1  UNL1        0.1229
     13 C           5.5605    1.1422    0.0000 C.3     1  UNL1        0.0158
     14 C           4.7509   -1.3413    0.0000 C.3     1  UNL1        0.2615
     15 C           6.0487   -0.4018    0.0000 C.3     1  UNL1        0.1679
     16 C           6.3995    1.0392    0.0000 C.3     1  UNL1       -0.0079
     17 C           3.2574    0.1937    0.0000 C.3     1  UNL1        0.0651
     18 C           3.4488   -0.3953    0.0000 C.2     1  UNL1        0.3213
     19 C           6.3508   -1.3427    0.0000 C.2     1  UNL1        0.3399
     20 C           2.9511    1.1394    0.0000 C.2     1  UNL1        0.3086
     21 C           6.9294    1.8872    0.0000 C.3     1  UNL1       -0.0574
     22 C           5.9300    1.9221    0.0000 C.3     1  UNL1       -0.0574
     23 C           7.3988    1.0043    0.0000 C.3     1  UNL1       -0.0574
     24 H           4.8221    1.9509    0.0000 H       1  UNL1        0.0746
     25 H           6.1670    1.2711    0.0000 H       1  UNL1        0.0329
     26 H           5.4957    1.7588    0.0000 H       1  UNL1        0.0329
     27 H           4.4879   -2.1496    0.0000 H       1  UNL1        0.1215
     28 H           6.6341   -0.6059    0.0000 H       1  UNL1        0.0720
     29 H           2.6508    0.0657    0.0000 H       1  UNL1        0.0390
     30 H           3.3210   -0.4230    0.0000 H       1  UNL1        0.0390
     31 H           7.0589   -0.7679    0.0000 H       1  UNL1        0.2102
     32 H           7.4552    1.5587    0.0000 H       1  UNL1        0.0236
     33 H           7.2579    2.4130    0.0000 H       1  UNL1        0.0236
     34 H           6.4036    2.2158    0.0000 H       1  UNL1        0.0236
     35 H           6.4774    2.2132    0.0000 H       1  UNL1        0.0236
     36 H           5.6389    2.4696    0.0000 H       1  UNL1        0.0236
     37 H           5.3826    1.6311    0.0000 H       1  UNL1        0.0236
     38 H           7.3772    0.3847    0.0000 H       1  UNL1        0.0236
     39 H           8.0185    0.9826    0.0000 H       1  UNL1        0.0236
     40 H           7.4205    1.6239    0.0000 H       1  UNL1        0.0236
     41 H           7.4362   -0.1204    0.0000 H       1  UNL1        0.2105
@<TRIPOS>BOND
     1     1    14    1
     2     1    18    1
     3     2    12    1
     4     2    20    1
     5     3    14    1
     6     3    19    1
     7    11     4    1
     8     4    31    1
     9    15     5    1
    10     5    41    1
    11     6    18    2
    12     7    19    2
    13     8    20    2
    14     9    10    1
    15     9    11    1
    16     9    14    1
    17     9    15    1
    18    10    12    1
    19    10    17    1
    20    10    18    1
    21    11    13    1
    22    11    16    1
    23    12    13    1
    24    12    24    1
    25    13    25    1
    26    13    26    1
    27    14    27    1
    28    15    19    1
    29    15    28    1
    30    16    21    1
    31    16    22    1
    32    16    23    1
    33    17    20    1
    34    17    29    1
    35    17    30    1
    36    21    32    1
    37    21    33    1
    38    21    34    1
    39    22    35    1
    40    22    36    1
    41    22    37    1
    42    23    38    1
    43    23    39    1
    44    23    40    1
