@<TRIPOS>MOLECULE
IMPHY010560
 40 42 0 0 0
SMALL
GASTEIGER

@<TRIPOS>ATOM
      1 O           4.3888   -1.4788    0.0000 O.3     1  UNL1       -0.3615
      2 C           4.8888   -0.6128    0.0000 C.3     1  UNL1        0.1023
      3 C           5.3888   -1.4788    0.0000 C.3     1  UNL1        0.0939
      4 C           3.9878   -0.1789    0.0000 C.3     1  UNL1        0.0007
      5 C           5.7898   -0.1789    0.0000 C.3     1  UNL1       -0.0202
      6 C           3.7653    0.7960    0.0000 C.2     1  UNL1       -0.0644
      7 C           6.0123    0.7960    0.0000 C.3     1  UNL1       -0.0440
      8 C           4.3888    1.5778    0.0000 C.2     1  UNL1       -0.0671
      9 C           5.3888    1.5778    0.0000 C.3     1  UNL1       -0.0224
     10 C           2.8355    1.1477    0.0000 C.3     1  UNL1       -0.0221
     11 C           5.3888   -2.4788    0.0000 C.3     1  UNL1       -0.0333
     12 C           6.2548   -0.9788    0.0000 C.3     1  UNL1       -0.0333
     13 C           3.8390    2.4061    0.0000 C.3     1  UNL1       -0.0307
     14 C           2.8810    2.1408    0.0000 C.3     1  UNL1       -0.0430
     15 C           5.8227    2.4788    0.0000 C.3     1  UNL1       -0.0587
     16 C           2.0000    0.5983    0.0000 C.3     1  UNL1       -0.0587
     17 H           3.3678   -0.1789    0.0000 H       1  UNL1        0.0339
     18 H           3.8499   -0.7834    0.0000 H       1  UNL1        0.0339
     19 H           5.9277   -0.7834    0.0000 H       1  UNL1        0.0294
     20 H           6.4098   -0.1789    0.0000 H       1  UNL1        0.0294
     21 H           6.5709    0.5270    0.0000 H       1  UNL1        0.0272
     22 H           6.3989    1.2808    0.0000 H       1  UNL1        0.0272
     23 H           5.0589    2.1028    0.0000 H       1  UNL1        0.0343
     24 H           2.2967    1.4544    0.0000 H       1  UNL1        0.0343
     25 H           4.7688   -2.4788    0.0000 H       1  UNL1        0.0258
     26 H           5.3888   -3.0988    0.0000 H       1  UNL1        0.0258
     27 H           6.0088   -2.4788    0.0000 H       1  UNL1        0.0258
     28 H           6.5648   -1.5158    0.0000 H       1  UNL1        0.0258
     29 H           6.7918   -0.6688    0.0000 H       1  UNL1        0.0258
     30 H           5.9448   -0.4419    0.0000 H       1  UNL1        0.0258
     31 H           4.3887    2.6928    0.0000 H       1  UNL1        0.0310
     32 H           3.6117    2.9829    0.0000 H       1  UNL1        0.0310
     33 H           2.7792    2.7524    0.0000 H       1  UNL1        0.0274
     34 H           2.2621    2.1039    0.0000 H       1  UNL1        0.0274
     35 H           6.3813    2.2098    0.0000 H       1  UNL1        0.0235
     36 H           6.0917    3.0374    0.0000 H       1  UNL1        0.0235
     37 H           5.2641    2.7478    0.0000 H       1  UNL1        0.0235
     38 H           1.6593    1.1163    0.0000 H       1  UNL1        0.0235
     39 H           1.4820    0.2576    0.0000 H       1  UNL1        0.0235
     40 H           2.3407    0.0802    0.0000 H       1  UNL1        0.0235
@<TRIPOS>BOND
     1     2     1    1
     2     1     3    1
     3     2     3    1
     4     2     4    1
     5     2     5    1
     6     3    11    1
     7     3    12    1
     8     4     6    1
     9     4    17    1
    10     4    18    1
    11     5     7    1
    12     5    19    1
    13     5    20    1
    14     6     8    2
    15     6    10    1
    16     7     9    1
    17     7    21    1
    18     7    22    1
    19     8     9    1
    20     8    13    1
    21     9    15    1
    22     9    23    1
    23    10    14    1
    24    10    16    1
    25    10    24    1
    26    11    25    1
    27    11    26    1
    28    11    27    1
    29    12    28    1
    30    12    29    1
    31    12    30    1
    32    13    14    1
    33    13    31    1
    34    13    32    1
    35    14    33    1
    36    14    34    1
    37    15    35    1
    38    15    36    1
    39    15    37    1
    40    16    38    1
    41    16    39    1
    42    16    40    1
