@<TRIPOS>MOLECULE
IMPHY010017
 33 34 0 0 0
SMALL
GASTEIGER

@<TRIPOS>ATOM
      1 O           4.5878   -0.7420    0.0000 O.3     1  UNL1       -0.3574
      2 O           6.3479    1.1548    0.0000 O.2     1  UNL1       -0.2946
      3 C           4.0000    0.0670    0.0000 C.3     1  UNL1        0.1066
      4 C           3.5000   -0.7990    0.0000 C.3     1  UNL1        0.0167
      5 C           4.5878    0.8760    0.0000 C.3     1  UNL1        0.0422
      6 C           3.5000    0.9330    0.0000 C.2     1  UNL1       -0.0400
      7 C           5.5388   -0.4330    0.0000 C.3     1  UNL1        0.1149
      8 C           5.5388    0.5670    0.0000 C.2     1  UNL1        0.1646
      9 C           2.5000   -0.7990    0.0000 C.2     1  UNL1       -0.0753
     10 C           3.5000   -1.7990    0.0000 C.3     1  UNL1       -0.0534
     11 C           4.1428   -1.5651    0.0000 C.3     1  UNL1       -0.0534
     12 C           2.5000    0.9330    0.0000 C.2     1  UNL1       -0.0603
     13 C           2.0000    0.0670    0.0000 C.2     1  UNL1       -0.0650
     14 C           4.0000    1.7990    0.0000 C.3     1  UNL1       -0.0408
     15 C           6.3479   -1.0208    0.0000 C.3     1  UNL1       -0.0317
     16 H           4.8400    1.4424    0.0000 H       1  UNL1        0.0374
     17 H           4.0508    1.1860    0.0000 H       1  UNL1        0.0374
     18 H           5.4418   -1.0454    0.0000 H       1  UNL1        0.0673
     19 H           2.1900   -1.3360    0.0000 H       1  UNL1        0.0578
     20 H           3.6678   -1.9636    0.0000 H       1  UNL1        0.0239
     21 H           2.8800   -1.7990    0.0000 H       1  UNL1        0.0239
     22 H           3.5000   -2.4190    0.0000 H       1  UNL1        0.0239
     23 H           4.1200   -1.7990    0.0000 H       1  UNL1        0.0239
     24 H           4.5413   -2.0400    0.0000 H       1  UNL1        0.0239
     25 H           4.6177   -1.1666    0.0000 H       1  UNL1        0.0239
     26 H           2.1900    1.4700    0.0000 H       1  UNL1        0.0618
     27 H           1.3800    0.0670    0.0000 H       1  UNL1        0.0615
     28 H           4.5369    1.4890    0.0000 H       1  UNL1        0.0275
     29 H           4.3100    2.3360    0.0000 H       1  UNL1        0.0275
     30 H           3.4631    2.1090    0.0000 H       1  UNL1        0.0275
     31 H           5.9834   -1.5224    0.0000 H       1  UNL1        0.0259
     32 H           6.8494   -1.3852    0.0000 H       1  UNL1        0.0259
     33 H           6.7123   -0.5192    0.0000 H       1  UNL1        0.0259
@<TRIPOS>BOND
     1     1     3    1
     2     1     7    1
     3     2     8    2
     4     3     4    1
     5     3     5    1
     6     3     6    1
     7     4     9    1
     8     4    10    1
     9     4    11    1
    10     5     8    1
    11     5    16    1
    12     5    17    1
    13     6    12    2
    14     6    14    1
    15     7     8    1
    16     7    15    1
    17     7    18    1
    18     9    13    2
    19     9    19    1
    20    10    21    1
    21    10    22    1
    22    10    23    1
    23    11    20    1
    24    11    24    1
    25    11    25    1
    26    12    13    1
    27    12    26    1
    28    13    27    1
    29    14    28    1
    30    14    29    1
    31    14    30    1
    32    15    31    1
    33    15    32    1
    34    15    33    1
