@<TRIPOS>MOLECULE
IMPHY010530
 40 41 0 0 0
SMALL
GASTEIGER

@<TRIPOS>ATOM
      1 O           3.8660   -1.0770    0.0000 O.3     1  UNL1       -0.2277
      2 O           3.8660   -0.0771    0.0000 O.3     1  UNL1       -0.2233
      3 O           3.0000   -3.5770    0.0000 O.3     1  UNL1       -0.3865
      4 C           3.0000   -1.5770    0.0000 C.3     1  UNL1        0.1219
      5 C           3.0000    0.4229    0.0000 C.3     1  UNL1        0.1266
      6 C           2.1340   -1.0770    0.0000 C.3     1  UNL1       -0.0179
      7 C           2.1340   -0.0771    0.0000 C.3     1  UNL1       -0.0142
      8 C           3.0000   -2.5770    0.0000 C.3     1  UNL1        0.0895
      9 C           3.5000    1.2890    0.0000 C.ar    1  UNL1       -0.0131
     10 C           2.5000    1.2890    0.0000 C.3     1  UNL1       -0.0286
     11 C           2.0000   -2.5770    0.0000 C.3     1  UNL1       -0.0338
     12 C           4.0000   -2.5770    0.0000 C.3     1  UNL1       -0.0338
     13 C           4.5000    1.2890    0.0000 C.ar    1  UNL1       -0.0555
     14 C           3.0000    2.1550    0.0000 C.ar    1  UNL1       -0.0555
     15 C           5.0000    2.1550    0.0000 C.ar    1  UNL1       -0.0585
     16 C           3.5000    3.0210    0.0000 C.ar    1  UNL1       -0.0585
     17 C           4.5000    3.0210    0.0000 C.ar    1  UNL1       -0.0504
     18 C           5.0000    3.8870    0.0000 C.3     1  UNL1       -0.0397
     19 H           3.7361   -2.0020    0.0000 H       1  UNL1        0.0656
     20 H           1.9219    0.5056    0.0000 H       1  UNL1        0.0298
     21 H           1.5234   -0.1847    0.0000 H       1  UNL1        0.0298
     22 H           1.5234   -0.9694    0.0000 H       1  UNL1        0.0293
     23 H           1.9219   -1.6597    0.0000 H       1  UNL1        0.0293
     24 H           3.0369    1.5990    0.0000 H       1  UNL1        0.0262
     25 H           2.1900    1.8259    0.0000 H       1  UNL1        0.0262
     26 H           1.9631    0.9790    0.0000 H       1  UNL1        0.0262
     27 H           4.0000   -3.1970    0.0000 H       1  UNL1        0.0258
     28 H           2.0000   -1.9570    0.0000 H       1  UNL1        0.0258
     29 H           1.3800   -2.5770    0.0000 H       1  UNL1        0.0258
     30 H           2.0000   -3.1970    0.0000 H       1  UNL1        0.0258
     31 H           4.6200   -2.5770    0.0000 H       1  UNL1        0.0258
     32 H           4.0000   -1.9570    0.0000 H       1  UNL1        0.0258
     33 H           4.8100    0.7520    0.0000 H       1  UNL1        0.0621
     34 H           2.3800    2.1550    0.0000 H       1  UNL1        0.0621
     35 H           2.4631   -3.8870    0.0000 H       1  UNL1        0.2102
     36 H           5.6200    2.1550    0.0000 H       1  UNL1        0.0620
     37 H           3.1900    3.5580    0.0000 H       1  UNL1        0.0620
     38 H           5.5369    3.5770    0.0000 H       1  UNL1        0.0278
     39 H           5.3100    4.4240    0.0000 H       1  UNL1        0.0278
     40 H           4.4631    4.1970    0.0000 H       1  UNL1        0.0278
@<TRIPOS>BOND
     1     1     2    1
     2     1     4    1
     3     2     5    1
     4     3     8    1
     5     3    35    1
     6     4     6    1
     7     4     8    1
     8     4    19    1
     9     5     7    1
    10     5     9    1
    11     5    10    1
    12     6     7    1
    13     6    22    1
    14     6    23    1
    15     7    20    1
    16     7    21    1
    17     8    11    1
    18     8    12    1
    19     9    13   ar
    20     9    14   ar
    21    10    24    1
    22    10    25    1
    23    10    26    1
    24    11    28    1
    25    11    29    1
    26    11    30    1
    27    12    27    1
    28    12    31    1
    29    12    32    1
    30    13    15   ar
    31    13    33    1
    32    14    16   ar
    33    14    34    1
    34    15    17   ar
    35    15    36    1
    36    16    17   ar
    37    16    37    1
    38    17    18    1
    39    18    38    1
    40    18    39    1
    41    18    40    1
