@<TRIPOS>MOLECULE
IMPHY016525
 21 21 0 0 0
SMALL
GASTEIGER

@<TRIPOS>ATOM
      1 S           2.8090    0.8674    0.0000 S.2     1  UNL1       -0.0883
      2 O           7.6302   -0.7590    0.0000 O.3     1  UNL1       -0.4332
      3 O           7.0949   -2.4063    0.0000 O.2     1  UNL1       -0.2508
      4 C           3.6180    1.4552    0.0000 C.ar    1  UNL1        0.0622
      5 C           3.3090    2.4063    0.0000 C.ar    1  UNL1       -0.0392
      6 C           2.3090    2.4063    0.0000 C.ar    1  UNL1       -0.0535
      7 C           2.0000    1.4552    0.0000 C.ar    1  UNL1       -0.0231
      8 C           4.5691    1.1462    0.0000 C.1     1  UNL1       -0.0544
      9 C           8.7891   -2.0462    0.0000 C.3     1  UNL1        0.0336
     10 C           7.8381   -1.7371    0.0000 C.2     1  UNL1        0.3087
     11 C           6.6791   -0.4500    0.0000 C.2     1  UNL1        0.1038
     12 C           6.4712    0.5282    0.0000 C.2     1  UNL1        0.0238
     13 C           5.5202    0.8372    0.0000 C.1     1  UNL1       -0.0653
     14 H           3.6734    2.9079    0.0000 H       1  UNL1        0.0635
     15 H           1.9446    2.9079    0.0000 H       1  UNL1        0.0623
     16 H           1.4103    1.2636    0.0000 H       1  UNL1        0.0694
     17 H           8.5976   -2.6358    0.0000 H       1  UNL1        0.0342
     18 H           9.3788   -2.2378    0.0000 H       1  UNL1        0.0342
     19 H           8.9807   -1.4565    0.0000 H       1  UNL1        0.0342
     20 H           6.2184   -0.8648    0.0000 H       1  UNL1        0.1037
     21 H           6.9320    0.9430    0.0000 H       1  UNL1        0.0743
@<TRIPOS>BOND
     1     1     4   ar
     2     1     7   ar
     3     2    10    1
     4     2    11    1
     5     3    10    2
     6     4     5   ar
     7     4     8    1
     8     5     6   ar
     9     5    14    1
    10     6     7   ar
    11     6    15    1
    12     7    16    1
    13     8    13    3
    14     9    10    1
    15     9    17    1
    16     9    18    1
    17     9    19    1
    18    11    12    2
    19    11    20    1
    20    12    13    1
    21    12    21    1
