@<TRIPOS>MOLECULE
IMPHY012128
 13 13 0 0 0
SMALL
GASTEIGER

@<TRIPOS>ATOM
      1 O           4.5691   -0.1807    0.0000 O.2     1  UNL1       -0.2758
      2 N           2.8090   -0.4594    0.0000 N.am    1  UNL1       -0.3153
      3 C           2.3090    1.0794    0.0000 C.3     1  UNL1       -0.0291
      4 C           2.0000    0.1284    0.0000 C.3     1  UNL1        0.0120
      5 C           3.3090    1.0794    0.0000 C.3     1  UNL1        0.0254
      6 C           3.6180    0.1284    0.0000 C.2     1  UNL1        0.2131
      7 H           2.3738    1.6960    0.0000 H       1  UNL1        0.0285
      8 H           1.7026    1.2083    0.0000 H       1  UNL1        0.0285
      9 H           1.4336    0.3805    0.0000 H       1  UNL1        0.0462
     10 H           1.6900   -0.4086    0.0000 H       1  UNL1        0.0462
     11 H           3.9155    1.2083    0.0000 H       1  UNL1        0.0359
     12 H           3.2442    1.6960    0.0000 H       1  UNL1        0.0359
     13 H           2.8090   -1.0794    0.0000 H       1  UNL1        0.1487
@<TRIPOS>BOND
     1     1     6    2
     2     2     4    1
     3     2     6   am
     4     2    13    1
     5     3     4    1
     6     3     5    1
     7     3     7    1
     8     3     8    1
     9     4     9    1
    10     4    10    1
    11     5     6    1
    12     5    11    1
    13     5    12    1
