@<TRIPOS>MOLECULE
IMPHY017219
 48 47 0 0 0
SMALL
GASTEIGER

@<TRIPOS>ATOM
      1 O           3.7320    0.4400    0.0000 O.3     1  UNL1       -0.4342
      2 O           2.8660   -1.0600    0.0000 O.2     1  UNL1       -0.2508
      3 C          10.6603    0.4400    0.0000 C.3     1  UNL1       -0.0531
      4 C          11.5263   -0.0600    0.0000 C.3     1  UNL1       -0.0531
      5 C           9.7942   -0.0600    0.0000 C.3     1  UNL1       -0.0531
      6 C          12.3923    0.4400    0.0000 C.3     1  UNL1       -0.0531
      7 C           8.9282    0.4400    0.0000 C.3     1  UNL1       -0.0530
      8 C          13.2583   -0.0600    0.0000 C.3     1  UNL1       -0.0531
      9 C           8.0622   -0.0600    0.0000 C.3     1  UNL1       -0.0528
     10 C          14.1244    0.4400    0.0000 C.3     1  UNL1       -0.0533
     11 C           7.1962    0.4400    0.0000 C.3     1  UNL1       -0.0495
     12 C          14.9904   -0.0600    0.0000 C.3     1  UNL1       -0.0559
     13 C           6.3301   -0.0600    0.0000 C.3     1  UNL1       -0.0316
     14 C          15.8564    0.4400    0.0000 C.3     1  UNL1       -0.0653
     15 C           5.4641    0.4400    0.0000 C.2     1  UNL1       -0.0490
     16 C           4.5981   -0.0600    0.0000 C.2     1  UNL1        0.0917
     17 C           2.8660   -0.0600    0.0000 C.2     1  UNL1        0.3086
     18 C           2.0000    0.4400    0.0000 C.3     1  UNL1        0.0336
     19 H          11.0588    0.9149    0.0000 H       1  UNL1        0.0265
     20 H          10.2617    0.9149    0.0000 H       1  UNL1        0.0265
     21 H          11.1278   -0.5349    0.0000 H       1  UNL1        0.0265
     22 H          11.9248   -0.5349    0.0000 H       1  UNL1        0.0265
     23 H           9.3957   -0.5349    0.0000 H       1  UNL1        0.0265
     24 H          10.1928   -0.5349    0.0000 H       1  UNL1        0.0265
     25 H          12.7908    0.9149    0.0000 H       1  UNL1        0.0265
     26 H          11.9938    0.9149    0.0000 H       1  UNL1        0.0265
     27 H           9.3267    0.9149    0.0000 H       1  UNL1        0.0265
     28 H           8.5297    0.9149    0.0000 H       1  UNL1        0.0265
     29 H          12.8598   -0.5349    0.0000 H       1  UNL1        0.0265
     30 H          13.6569   -0.5349    0.0000 H       1  UNL1        0.0265
     31 H           7.6636   -0.5349    0.0000 H       1  UNL1        0.0265
     32 H           8.4607   -0.5349    0.0000 H       1  UNL1        0.0265
     33 H          14.5229    0.9149    0.0000 H       1  UNL1        0.0265
     34 H          13.7258    0.9149    0.0000 H       1  UNL1        0.0265
     35 H           7.5947    0.9149    0.0000 H       1  UNL1        0.0268
     36 H           6.7976    0.9149    0.0000 H       1  UNL1        0.0268
     37 H          14.5919   -0.5349    0.0000 H       1  UNL1        0.0263
     38 H          15.3889   -0.5349    0.0000 H       1  UNL1        0.0263
     39 H           5.9316   -0.5349    0.0000 H       1  UNL1        0.0308
     40 H           6.7287   -0.5349    0.0000 H       1  UNL1        0.0308
     41 H          16.1664   -0.0969    0.0000 H       1  UNL1        0.0230
     42 H          16.3933    0.7500    0.0000 H       1  UNL1        0.0230
     43 H          15.5464    0.9769    0.0000 H       1  UNL1        0.0230
     44 H           5.4641    1.0600    0.0000 H       1  UNL1        0.0602
     45 H           4.5981   -0.6800    0.0000 H       1  UNL1        0.1027
     46 H           2.3100    0.9769    0.0000 H       1  UNL1        0.0342
     47 H           1.4631    0.7500    0.0000 H       1  UNL1        0.0342
     48 H           1.6900   -0.0969    0.0000 H       1  UNL1        0.0342
@<TRIPOS>BOND
     1     1    16    1
     2     1    17    1
     3     2    17    2
     4     3     4    1
     5     3     5    1
     6     3    19    1
     7     3    20    1
     8     4     6    1
     9     4    21    1
    10     4    22    1
    11     5     7    1
    12     5    23    1
    13     5    24    1
    14     6     8    1
    15     6    25    1
    16     6    26    1
    17     7     9    1
    18     7    27    1
    19     7    28    1
    20     8    10    1
    21     8    29    1
    22     8    30    1
    23     9    11    1
    24     9    31    1
    25     9    32    1
    26    10    12    1
    27    10    33    1
    28    10    34    1
    29    11    13    1
    30    11    35    1
    31    11    36    1
    32    12    14    1
    33    12    37    1
    34    12    38    1
    35    13    15    1
    36    13    39    1
    37    13    40    1
    38    14    41    1
    39    14    42    1
    40    14    43    1
    41    15    16    2
    42    15    44    1
    43    16    45    1
    44    17    18    1
    45    18    46    1
    46    18    47    1
    47    18    48    1
