@<TRIPOS>MOLECULE
IMPHY017059
 29 28 0 0 0
SMALL
GASTEIGER

@<TRIPOS>ATOM
      1 O           8.9282    0.7500    0.0000 O.3     1  UNL1       -0.4649
      2 O           3.7320    0.7500    0.0000 O.3     1  UNL1       -0.4649
      3 O           8.0622   -0.7500    0.0000 O.2     1  UNL1       -0.2509
      4 O           4.5981   -0.7500    0.0000 O.2     1  UNL1       -0.2509
      5 C           6.3301    0.2500    0.0000 C.3     1  UNL1       -0.0329
      6 C           7.1962    0.7500    0.0000 C.3     1  UNL1        0.0454
      7 C           5.4641    0.7500    0.0000 C.3     1  UNL1        0.0454
      8 C           8.0622    0.2500    0.0000 C.2     1  UNL1        0.3071
      9 C           4.5981    0.2500    0.0000 C.2     1  UNL1        0.3071
     10 C           9.7942    0.2500    0.0000 C.3     1  UNL1        0.0896
     11 C           2.8660    0.2500    0.0000 C.3     1  UNL1        0.0896
     12 C          10.6603    0.7500    0.0000 C.3     1  UNL1       -0.0306
     13 C           2.0000    0.7500    0.0000 C.3     1  UNL1       -0.0306
     14 H           5.9316   -0.2249    0.0000 H       1  UNL1        0.0276
     15 H           6.7287   -0.2249    0.0000 H       1  UNL1        0.0276
     16 H           7.5947    1.2250    0.0000 H       1  UNL1        0.0378
     17 H           6.7976    1.2250    0.0000 H       1  UNL1        0.0378
     18 H           5.8626    1.2250    0.0000 H       1  UNL1        0.0378
     19 H           5.0656    1.2250    0.0000 H       1  UNL1        0.0378
     20 H           9.3957   -0.2249    0.0000 H       1  UNL1        0.0694
     21 H          10.1928   -0.2249    0.0000 H       1  UNL1        0.0694
     22 H           2.4675   -0.2249    0.0000 H       1  UNL1        0.0694
     23 H           3.2646   -0.2249    0.0000 H       1  UNL1        0.0694
     24 H          10.9703    0.2131    0.0000 H       1  UNL1        0.0262
     25 H          11.1972    1.0600    0.0000 H       1  UNL1        0.0262
     26 H          10.3503    1.2869    0.0000 H       1  UNL1        0.0262
     27 H           2.3100    1.2869    0.0000 H       1  UNL1        0.0262
     28 H           1.4631    1.0600    0.0000 H       1  UNL1        0.0262
     29 H           1.6900    0.2131    0.0000 H       1  UNL1        0.0262
@<TRIPOS>BOND
     1     1     8    1
     2     1    10    1
     3     2     9    1
     4     2    11    1
     5     3     8    2
     6     4     9    2
     7     5     6    1
     8     5     7    1
     9     5    14    1
    10     5    15    1
    11     6     8    1
    12     6    16    1
    13     6    17    1
    14     7     9    1
    15     7    18    1
    16     7    19    1
    17    10    12    1
    18    10    20    1
    19    10    21    1
    20    11    13    1
    21    11    22    1
    22    11    23    1
    23    12    24    1
    24    12    25    1
    25    12    26    1
    26    13    27    1
    27    13    28    1
    28    13    29    1
