@<TRIPOS>MOLECULE
IMPHY001968
 83 87 0 0 0
SMALL
GASTEIGER

@<TRIPOS>ATOM
      1 O           6.4144   -2.8842    0.0000 O.3     1  UNL1       -0.3906
      2 O          11.1246    3.0930    0.0000 O.3     1  UNL1       -0.3912
      3 O           2.1236   -2.1037    0.0000 O.3     1  UNL1       -0.3912
      4 O           3.9891   -3.0931    0.0000 O.3     1  UNL1       -0.4802
      5 O           5.1937   -3.5420    0.0000 O.2     1  UNL1       -0.2503
      6 C           7.5167   -0.0513    0.0000 C.3     1  UNL1       -0.0193
      7 C           7.5167    0.9487    0.0000 C.3     1  UNL1       -0.0257
      8 C           8.4106    1.4833    0.0000 C.3     1  UNL1       -0.0250
      9 C           6.6507   -0.5513    0.0000 C.3     1  UNL1       -0.0028
     10 C           9.3167    0.9695    0.0000 C.3     1  UNL1       -0.0278
     11 C           8.4106   -0.5860    0.0000 C.3     1  UNL1       -0.0463
     12 C           5.7847   -0.0513    0.0000 C.2     1  UNL1       -0.0627
     13 C           9.3167   -0.0722    0.0000 C.3     1  UNL1       -0.0486
     14 C          10.2605    1.5047    0.0000 C.3     1  UNL1       -0.0056
     15 C           4.8746   -0.5582    0.0000 C.3     1  UNL1       -0.0006
     16 C           6.6667   -1.5928    0.0000 C.3     1  UNL1       -0.0162
     17 C           6.6507    1.4487    0.0000 C.3     1  UNL1       -0.0306
     18 C           4.8666   -1.5998    0.0000 C.3     1  UNL1        0.1021
     19 C           8.3856    2.5680    0.0000 C.3     1  UNL1       -0.0447
     20 C           5.7687   -2.1206    0.0000 C.3     1  UNL1        0.0724
     21 C           7.8588   -0.9910    0.0000 C.3     1  UNL1       -0.0585
     22 C           5.7847    0.9487    0.0000 C.2     1  UNL1       -0.0836
     23 C          10.2605    2.5897    0.0000 C.3     1  UNL1        0.0606
     24 C           7.5408    1.9766    0.0000 C.3     1  UNL1       -0.0590
     25 C           7.2935   -1.3174    0.0000 C.3     1  UNL1       -0.0552
     26 C           9.3167    3.1250    0.0000 C.3     1  UNL1       -0.0258
     27 C           3.9478    0.0059    0.0000 C.3     1  UNL1       -0.0379
     28 C           3.9312   -2.1495    0.0000 C.3     1  UNL1       -0.0076
     29 C           2.9999   -0.5220    0.0000 C.3     1  UNL1       -0.0083
     30 C           2.9916   -1.6070    0.0000 C.3     1  UNL1        0.0615
     31 C          11.2605    1.5009    0.0000 C.3     1  UNL1       -0.0572
     32 C          10.7572    0.6368    0.0000 C.3     1  UNL1       -0.0572
     33 C           4.8589   -2.5997    0.0000 C.2     1  UNL1        0.3141
     34 C           2.0000   -0.5105    0.0000 C.3     1  UNL1       -0.0574
     35 C           2.5100    0.3497    0.0000 C.3     1  UNL1       -0.0574
     36 H           8.2561    0.5294    0.0000 H       1  UNL1        0.0315
     37 H          10.0512    0.5416    0.0000 H       1  UNL1        0.0312
     38 H           8.0060   -1.0558    0.0000 H       1  UNL1        0.0271
     39 H           8.8043   -1.0650    0.0000 H       1  UNL1        0.0271
     40 H           9.5258   -0.6558    0.0000 H       1  UNL1        0.0268
     41 H           9.9276    0.0339    0.0000 H       1  UNL1        0.0268
     42 H           4.8910    0.2917    0.0000 H       1  UNL1        0.0357
     43 H           6.8848   -2.1732    0.0000 H       1  UNL1        0.0299
     44 H           7.2759   -1.4773    0.0000 H       1  UNL1        0.0299
     45 H           7.0492    1.9236    0.0000 H       1  UNL1        0.0310
     46 H           6.2522    1.9236    0.0000 H       1  UNL1        0.0310
     47 H           8.1631    3.1467    0.0000 H       1  UNL1        0.0271
     48 H           7.7773    2.4478    0.0000 H       1  UNL1        0.0271
     49 H           5.3711   -2.5963    0.0000 H       1  UNL1        0.0605
     50 H           7.2762   -1.2031    0.0000 H       1  UNL1        0.0235
     51 H           8.0709   -1.5736    0.0000 H       1  UNL1        0.0235
     52 H           8.4414   -0.7789    0.0000 H       1  UNL1        0.0235
     53 H           5.2477    1.2587    0.0000 H       1  UNL1        0.0572
     54 H          10.2569    3.2097    0.0000 H       1  UNL1        0.0599
     55 H           7.8466    2.5159    0.0000 H       1  UNL1        0.0235
     56 H           7.0015    2.2825    0.0000 H       1  UNL1        0.0235
     57 H           7.2349    1.4373    0.0000 H       1  UNL1        0.0235
     58 H           6.8185   -1.7159    0.0000 H       1  UNL1        0.0238
     59 H           7.6920   -1.7923    0.0000 H       1  UNL1        0.0238
     60 H           7.7684   -0.9189    0.0000 H       1  UNL1        0.0238
     61 H           9.7103    3.6040    0.0000 H       1  UNL1        0.0290
     62 H           8.9121    3.5947    0.0000 H       1  UNL1        0.0290
     63 H           4.3560    0.4726    0.0000 H       1  UNL1        0.0277
     64 H           3.5579    0.4879    0.0000 H       1  UNL1        0.0277
     65 H           3.5339   -2.6255    0.0000 H       1  UNL1        0.0302
     66 H           4.3322   -2.6224    0.0000 H       1  UNL1        0.0302
     67 H           2.4564   -1.2939    0.0000 H       1  UNL1        0.0599
     68 H          10.2190    0.3288    0.0000 H       1  UNL1        0.0236
     69 H          11.0651    0.0986    0.0000 H       1  UNL1        0.0236
     70 H          11.2953    0.9447    0.0000 H       1  UNL1        0.0236
     71 H          11.2581    0.8809    0.0000 H       1  UNL1        0.0236
     72 H          11.8805    1.4985    0.0000 H       1  UNL1        0.0236
     73 H          11.2629    2.1209    0.0000 H       1  UNL1        0.0236
     74 H           7.0246   -2.7741    0.0000 H       1  UNL1        0.2098
     75 H           2.0072    0.1095    0.0000 H       1  UNL1        0.0236
     76 H           1.3800   -0.5033    0.0000 H       1  UNL1        0.0236
     77 H           1.9928   -1.1304    0.0000 H       1  UNL1        0.0236
     78 H           3.0505    0.6535    0.0000 H       1  UNL1        0.0236
     79 H           2.2062    0.8902    0.0000 H       1  UNL1        0.0236
     80 H           1.9695    0.0459    0.0000 H       1  UNL1        0.0236
     81 H          11.1222    3.7130    0.0000 H       1  UNL1        0.2098
     82 H           2.1212   -2.7237    0.0000 H       1  UNL1        0.2098
     83 H           3.9843   -3.7130    0.0000 H       1  UNL1        0.2951
@<TRIPOS>BOND
     1    20     1    1
     2     1    74    1
     3    23     2    1
     4     2    81    1
     5    30     3    1
     6     3    82    1
     7     4    33    1
     8     4    83    1
     9     5    33    2
    10     6     7    1
    11     6     9    1
    12     6    11    1
    13     6    21    1
    14     7     8    1
    15     7    17    1
    16     7    36    1
    17     8    10    1
    18     8    19    1
    19     8    24    1
    20     9    12    1
    21     9    16    1
    22     9    25    1
    23    10    13    1
    24    10    14    1
    25    10    37    1
    26    11    13    1
    27    11    38    1
    28    11    39    1
    29    12    15    1
    30    12    22    2
    31    13    40    1
    32    13    41    1
    33    14    23    1
    34    14    31    1
    35    14    32    1
    36    15    18    1
    37    15    27    1
    38    15    42    1
    39    16    20    1
    40    16    43    1
    41    16    44    1
    42    17    22    1
    43    17    45    1
    44    17    46    1
    45    18    20    1
    46    18    28    1
    47    18    33    1
    48    19    26    1
    49    19    47    1
    50    19    48    1
    51    20    49    1
    52    21    50    1
    53    21    51    1
    54    21    52    1
    55    22    53    1
    56    23    26    1
    57    23    54    1
    58    24    55    1
    59    24    56    1
    60    24    57    1
    61    25    58    1
    62    25    59    1
    63    25    60    1
    64    26    61    1
    65    26    62    1
    66    27    29    1
    67    27    63    1
    68    27    64    1
    69    28    30    1
    70    28    65    1
    71    28    66    1
    72    29    30    1
    73    29    34    1
    74    29    35    1
    75    30    67    1
    76    31    71    1
    77    31    72    1
    78    31    73    1
    79    32    68    1
    80    32    69    1
    81    32    70    1
    82    34    75    1
    83    34    76    1
    84    34    77    1
    85    35    78    1
    86    35    79    1
    87    35    80    1
