@<TRIPOS>MOLECULE
IMPHY008386
 31 32 0 0 0
SMALL
GASTEIGER

@<TRIPOS>ATOM
      1 O           4.3211    0.5210    0.0000 O.2     1  UNL1       -0.2872
      2 O           5.9209    2.6283    0.0000 O.3     1  UNL1       -0.4647
      3 O           4.6318    1.4715    0.0000 O.2     1  UNL1       -0.2453
      4 N           4.6783   -2.7833    0.0000 N.ar    1  UNL1       -0.3599
      5 C           3.7320   -1.4785    0.0000 C.ar    1  UNL1        0.0105
      6 C           3.7320   -2.4785    0.0000 C.ar    1  UNL1        0.0472
      7 C           4.6783   -1.1738    0.0000 C.ar    1  UNL1        0.0466
      8 C           5.2619   -1.9785    0.0000 C.ar    1  UNL1        0.0136
      9 C           2.8660   -0.9785    0.0000 C.ar    1  UNL1       -0.0519
     10 C           2.8660   -2.9785    0.0000 C.ar    1  UNL1       -0.0378
     11 C           4.9889   -0.2233    0.0000 C.2     1  UNL1        0.1885
     12 C           2.0000   -1.4785    0.0000 C.ar    1  UNL1       -0.0611
     13 C           2.0000   -2.4785    0.0000 C.ar    1  UNL1       -0.0598
     14 C           5.9674   -0.0171    0.0000 C.2     1  UNL1       -0.0046
     15 C           6.2781    0.9335    0.0000 C.2     1  UNL1        0.0371
     16 C           7.2566    1.1397    0.0000 C.3     1  UNL1       -0.0328
     17 C           5.6103    1.6778    0.0000 C.2     1  UNL1        0.3347
     18 C           5.2531    3.3726    0.0000 C.3     1  UNL1        0.0820
     19 H           5.8819   -1.9785    0.0000 H       1  UNL1        0.0814
     20 H           4.8709   -3.3726    0.0000 H       1  UNL1        0.1654
     21 H           2.8660   -0.3585    0.0000 H       1  UNL1        0.0624
     22 H           2.8660   -3.5985    0.0000 H       1  UNL1        0.0638
     23 H           1.4631   -1.1685    0.0000 H       1  UNL1        0.0618
     24 H           1.4631   -2.7885    0.0000 H       1  UNL1        0.0618
     25 H           6.3815   -0.4785    0.0000 H       1  UNL1        0.0661
     26 H           7.3845    0.5330    0.0000 H       1  UNL1        0.0280
     27 H           7.8633    1.2675    0.0000 H       1  UNL1        0.0280
     28 H           7.1288    1.7464    0.0000 H       1  UNL1        0.0280
     29 H           5.7145    3.7866    0.0000 H       1  UNL1        0.0661
     30 H           4.8390    3.8340    0.0000 H       1  UNL1        0.0661
     31 H           4.7916    2.9585    0.0000 H       1  UNL1        0.0661
@<TRIPOS>BOND
     1     1    11    2
     2     2    17    1
     3     2    18    1
     4     3    17    2
     5     4     6   ar
     6     4     8   ar
     7     4    20    1
     8     5     6   ar
     9     5     7   ar
    10     5     9   ar
    11     6    10   ar
    12     7     8   ar
    13     7    11    1
    14     8    19    1
    15     9    12   ar
    16     9    21    1
    17    10    13   ar
    18    10    22    1
    19    11    14    1
    20    12    13   ar
    21    12    23    1
    22    13    24    1
    23    14    15    2
    24    14    25    1
    25    15    16    1
    26    15    17    1
    27    16    26    1
    28    16    27    1
    29    16    28    1
    30    18    29    1
    31    18    30    1
    32    18    31    1
