@<TRIPOS>MOLECULE
IMPHY009692
 12 12 0 0 0
SMALL
GASTEIGER

@<TRIPOS>ATOM
      1 O           2.8090    1.2694    0.0000 O.2     1  UNL1       -0.2927
      2 C           2.0000   -0.3184    0.0000 C.3     1  UNL1        0.0133
      3 C           2.3090   -1.2694    0.0000 C.3     1  UNL1       -0.0274
      4 C           2.8090    0.2694    0.0000 C.2     1  UNL1        0.1561
      5 C           3.3090   -1.2694    0.0000 C.2     1  UNL1       -0.0803
      6 C           3.6180   -0.3184    0.0000 C.2     1  UNL1       -0.0231
      7 H           1.6900    0.2186    0.0000 H       1  UNL1        0.0348
      8 H           1.4336   -0.5705    0.0000 H       1  UNL1        0.0348
      9 H           1.7026   -1.3983    0.0000 H       1  UNL1        0.0312
     10 H           2.3738   -1.8860    0.0000 H       1  UNL1        0.0312
     11 H           3.6734   -1.7710    0.0000 H       1  UNL1        0.0573
     12 H           4.2077   -0.1268    0.0000 H       1  UNL1        0.0649
@<TRIPOS>BOND
     1     1     4    2
     2     2     3    1
     3     2     4    1
     4     2     7    1
     5     2     8    1
     6     3     5    1
     7     3     9    1
     8     3    10    1
     9     4     6    1
    10     5     6    2
    11     5    11    1
    12     6    12    1
