@<TRIPOS>MOLECULE
IMPHY012499
 59 61 0 0 0
SMALL
GASTEIGER

@<TRIPOS>ATOM
      1 O           6.3580   -0.2726    0.0000 O.2     1  UNL1       -0.4470
      2 O           4.5981    2.7621    0.0000 O.3     1  UNL1       -0.4905
      3 O           4.5981   -1.2379    0.0000 O.3     1  UNL1       -0.4884
      4 O           8.1282    1.7862    0.0000 O.3     1  UNL1       -0.4883
      5 O           2.8660    1.7621    0.0000 O.3     1  UNL1       -0.4884
      6 O           2.8660   -0.2379    0.0000 O.3     1  UNL1       -0.4883
      7 O           6.3465    2.7967    0.0000 O.2     1  UNL1       -0.2830
      8 O          10.7282    0.2279    0.0000 O.3     1  UNL1       -0.4913
      9 O           8.9846   -2.7654    0.0000 O.3     1  UNL1       -0.4913
     10 O          10.7205   -1.7721    0.0000 O.3     1  UNL1       -0.4885
     11 C           5.4641    1.2621    0.0000 C.ar    1  UNL1        0.1167
     12 C           5.4641    0.2621    0.0000 C.ar    1  UNL1        0.1884
     13 C           7.2641    0.2412    0.0000 C.ar    1  UNL1        0.1812
     14 C           4.5981    1.7621    0.0000 C.ar    1  UNL1        0.1799
     15 C           4.5981   -0.2379    0.0000 C.ar    1  UNL1        0.2088
     16 C           6.3580    1.7967    0.0000 C.ar    1  UNL1        0.2383
     17 C           7.2641    1.2829    0.0000 C.ar    1  UNL1        0.2107
     18 C           8.1282   -0.2621    0.0000 C.ar    1  UNL1        0.0282
     19 C           3.7320    1.2621    0.0000 C.ar    1  UNL1        0.2082
     20 C           3.7320    0.2621    0.0000 C.ar    1  UNL1        0.2110
     21 C           8.1244   -1.2621    0.0000 C.ar    1  UNL1       -0.0053
     22 C           8.9962    0.2346    0.0000 C.ar    1  UNL1       -0.0053
     23 C           9.8602   -0.2688    0.0000 C.ar    1  UNL1        0.1658
     24 C           8.9884   -1.7654    0.0000 C.ar    1  UNL1        0.1658
     25 C           9.8564   -1.2688    0.0000 C.ar    1  UNL1        0.2035
     26 C           3.7320    3.2621    0.0000 C.3     1  UNL1        0.0790
     27 C           3.7320   -1.7379    0.0000 C.3     1  UNL1        0.0791
     28 C           8.1244    2.7862    0.0000 C.3     1  UNL1        0.0791
     29 C           2.0000    1.2621    0.0000 C.3     1  UNL1        0.0791
     30 C           2.0000    0.2621    0.0000 C.3     1  UNL1        0.0791
     31 C          11.5923   -0.2754    0.0000 C.3     1  UNL1        0.0790
     32 C           8.1166   -3.2621    0.0000 C.3     1  UNL1        0.0790
     33 C          10.7166   -2.7721    0.0000 C.3     1  UNL1        0.0791
     34 H           7.5862   -1.5700    0.0000 H       1  UNL1        0.0662
     35 H           8.9985    0.8546    0.0000 H       1  UNL1        0.0662
     36 H           4.0420    3.7990    0.0000 H       1  UNL1        0.0660
     37 H           3.1951    3.5721    0.0000 H       1  UNL1        0.0660
     38 H           3.4220    2.7251    0.0000 H       1  UNL1        0.0660
     39 H           3.4220   -1.2010    0.0000 H       1  UNL1        0.0660
     40 H           3.1951   -2.0479    0.0000 H       1  UNL1        0.0660
     41 H           4.0420   -2.2749    0.0000 H       1  UNL1        0.0660
     42 H           8.7443    2.7886    0.0000 H       1  UNL1        0.0660
     43 H           8.1220    3.4062    0.0000 H       1  UNL1        0.0660
     44 H           7.5044    2.7838    0.0000 H       1  UNL1        0.0660
     45 H           1.6900    1.7990    0.0000 H       1  UNL1        0.0660
     46 H           1.4631    0.9521    0.0000 H       1  UNL1        0.0660
     47 H           2.3100    0.7251    0.0000 H       1  UNL1        0.0660
     48 H           2.3100    0.7990    0.0000 H       1  UNL1        0.0660
     49 H           1.4631    0.5721    0.0000 H       1  UNL1        0.0660
     50 H           1.6900   -0.2749    0.0000 H       1  UNL1        0.0660
     51 H          11.2802   -0.8112    0.0000 H       1  UNL1        0.0660
     52 H          12.1280   -0.5875    0.0000 H       1  UNL1        0.0660
     53 H          11.9043    0.2603    0.0000 H       1  UNL1        0.0660
     54 H           7.8087   -2.7239    0.0000 H       1  UNL1        0.0660
     55 H           7.5785   -3.5700    0.0000 H       1  UNL1        0.0660
     56 H           8.4246   -3.8002    0.0000 H       1  UNL1        0.0660
     57 H          10.0966   -2.7697    0.0000 H       1  UNL1        0.0660
     58 H          10.7142   -3.3921    0.0000 H       1  UNL1        0.0660
     59 H          11.3366   -2.7745    0.0000 H       1  UNL1        0.0660
@<TRIPOS>BOND
     1     1    12   ar
     2     1    13   ar
     3     2    14    1
     4     2    26    1
     5     3    15    1
     6     3    27    1
     7     4    17    1
     8     4    28    1
     9     5    19    1
    10     5    29    1
    11     6    20    1
    12     6    30    1
    13     7    16    2
    14     8    23    1
    15     8    31    1
    16     9    24    1
    17     9    32    1
    18    10    25    1
    19    10    33    1
    20    11    12   ar
    21    11    14   ar
    22    11    16   ar
    23    12    15   ar
    24    13    17   ar
    25    13    18    1
    26    14    19   ar
    27    15    20   ar
    28    16    17   ar
    29    18    21   ar
    30    18    22   ar
    31    19    20   ar
    32    21    24   ar
    33    21    34    1
    34    22    23   ar
    35    22    35    1
    36    23    25   ar
    37    24    25   ar
    38    26    36    1
    39    26    37    1
    40    26    38    1
    41    27    39    1
    42    27    40    1
    43    27    41    1
    44    28    42    1
    45    28    43    1
    46    28    44    1
    47    29    45    1
    48    29    46    1
    49    29    47    1
    50    30    48    1
    51    30    49    1
    52    30    50    1
    53    31    51    1
    54    31    52    1
    55    31    53    1
    56    32    54    1
    57    32    55    1
    58    32    56    1
    59    33    57    1
    60    33    58    1
    61    33    59    1
