@<TRIPOS>MOLECULE
IMPHY001044
 48 51 0 0 0
SMALL
GASTEIGER

@<TRIPOS>ATOM
      1 O           6.9343    1.4050    0.0000 O.3     1  UNL1       -0.3369
      2 O           7.8003   -0.0950    0.0000 O.3     1  UNL1       -0.4515
      3 O           9.5323    2.9050    0.0000 O.3     1  UNL1       -0.3864
      4 O           9.5323    0.9050    0.0000 O.3     1  UNL1       -0.3829
      5 O           7.8003    3.9050    0.0000 O.3     1  UNL1       -0.3869
      6 O           6.0682   -2.0950    0.0000 O.2     1  UNL1       -0.1997
      7 O           4.3198    0.9396    0.0000 O.3     1  UNL1       -0.5057
      8 O           2.5381   -2.1192    0.0000 O.3     1  UNL1       -0.5063
      9 O          10.3984   -3.5950    0.0000 O.3     1  UNL1       -0.5068
     10 C           8.6663    2.4050    0.0000 C.3     1  UNL1        0.1148
     11 C           8.6663    1.4050    0.0000 C.3     1  UNL1        0.1454
     12 C           7.8003    2.9050    0.0000 C.3     1  UNL1        0.1070
     13 C           7.8003    0.9050    0.0000 C.3     1  UNL1        0.2309
     14 C           6.9343    2.4050    0.0000 C.3     1  UNL1        0.0802
     15 C           6.9343   -0.5950    0.0000 C.ar    1  UNL1        0.2288
     16 C           6.9343   -1.5950    0.0000 C.ar    1  UNL1        0.4045
     17 C           6.0682   -0.0950    0.0000 C.ar    1  UNL1        0.0093
     18 C           5.2022   -0.5950    0.0000 C.ar    1  UNL1        0.1241
     19 C           5.2022   -1.5950    0.0000 C.ar    1  UNL1        0.3708
     20 C           7.8003   -2.0950    0.0000 C.ar    1  UNL1        0.0830
     21 C           4.3083   -0.0603    0.0000 C.ar    1  UNL1        0.1366
     22 C           4.3083   -2.1297    0.0000 C.ar    1  UNL1        0.0847
     23 C           7.8003   -3.0950    0.0000 C.ar    1  UNL1       -0.0420
     24 C           8.6663   -1.5950    0.0000 C.ar    1  UNL1       -0.0420
     25 C           3.4022   -0.5742    0.0000 C.ar    1  UNL1        0.0225
     26 C           3.4022   -1.6158    0.0000 C.ar    1  UNL1        0.1293
     27 C           8.6663   -3.5950    0.0000 C.ar    1  UNL1       -0.0193
     28 C           9.5323   -2.0950    0.0000 C.ar    1  UNL1       -0.0193
     29 C           9.5323   -3.0950    0.0000 C.ar    1  UNL1        0.1169
     30 H           8.6663    3.0250    0.0000 H       1  UNL1        0.0648
     31 H           8.6663    0.7850    0.0000 H       1  UNL1        0.0683
     32 H           7.2634    3.2150    0.0000 H       1  UNL1        0.0643
     33 H           7.2634    0.5950    0.0000 H       1  UNL1        0.1084
     34 H           6.7222    2.9876    0.0000 H       1  UNL1        0.0588
     35 H           6.3237    2.2973    0.0000 H       1  UNL1        0.0588
     36 H           9.5323    3.5250    0.0000 H       1  UNL1        0.2100
     37 H          10.0693    1.2150    0.0000 H       1  UNL1        0.2102
     38 H           7.2634    4.2150    0.0000 H       1  UNL1        0.2100
     39 H           6.0682    0.5250    0.0000 H       1  UNL1        0.0667
     40 H           4.3154   -2.7496    0.0000 H       1  UNL1        0.0749
     41 H           7.2634   -3.4050    0.0000 H       1  UNL1        0.0628
     42 H           8.6663   -0.9750    0.0000 H       1  UNL1        0.0628
     43 H           2.8665   -0.2621    0.0000 H       1  UNL1        0.0691
     44 H           8.6663   -4.2150    0.0000 H       1  UNL1        0.0654
     45 H          10.0693   -1.7850    0.0000 H       1  UNL1        0.0654
     46 H           3.7865    1.2558    0.0000 H       1  UNL1        0.2922
     47 H           2.0000   -1.8112    0.0000 H       1  UNL1        0.2921
     48 H          10.3984   -4.2150    0.0000 H       1  UNL1        0.2921
@<TRIPOS>UNITY_ATOM_ATTR
6 1
charge 1
@<TRIPOS>BOND
     1     1    13    1
     2     1    14    1
     3    13     2    1
     4     2    15    1
     5     3    10    1
     6     3    36    1
     7     4    11    1
     8     4    37    1
     9    12     5    1
    10     5    38    1
    11     6    16   ar
    12     6    19   ar
    13     7    21    1
    14     7    46    1
    15     8    26    1
    16     8    47    1
    17     9    29    1
    18     9    48    1
    19    10    11    1
    20    10    12    1
    21    10    30    1
    22    11    13    1
    23    11    31    1
    24    12    14    1
    25    12    32    1
    26    13    33    1
    27    14    34    1
    28    14    35    1
    29    15    16   ar
    30    15    17   ar
    31    16    20    1
    32    17    18   ar
    33    17    39    1
    34    18    19   ar
    35    18    21   ar
    36    19    22   ar
    37    20    23   ar
    38    20    24   ar
    39    21    25   ar
    40    22    26   ar
    41    22    40    1
    42    23    27   ar
    43    23    41    1
    44    24    28   ar
    45    24    42    1
    46    25    26   ar
    47    25    43    1
    48    27    29   ar
    49    27    44    1
    50    28    29   ar
    51    28    45    1
