@<TRIPOS>MOLECULE
IMPHY012519
 95 101 0 0 0
SMALL
GASTEIGER

@<TRIPOS>ATOM
      1 O           8.2902    4.0403    0.0000 O.3     1  UNL1       -0.3448
      2 O           6.5177    4.9351    0.0000 O.3     1  UNL1       -0.3480
      3 O           6.8671   -4.2038    0.0000 O.3     1  UNL1       -0.3454
      4 O           5.1350   -4.2038    0.0000 O.3     1  UNL1       -0.3405
      5 O           6.8671   -6.2038    0.0000 O.3     1  UNL1       -0.3841
      6 O           5.1350   -7.2038    0.0000 O.3     1  UNL1       -0.3864
      7 O           3.4030   -6.2038    0.0000 O.3     1  UNL1       -0.3865
      8 O           2.5369   -4.7038    0.0000 O.3     1  UNL1       -0.3924
      9 C           6.8963    1.9931    0.0000 C.3     1  UNL1       -0.0233
     10 C           7.7643    1.4965    0.0000 C.3     1  UNL1       -0.0298
     11 C           7.7681    0.4965    0.0000 C.3     1  UNL1       -0.0343
     12 C           7.1018    2.9657    0.0000 C.3     1  UNL1       -0.0015
     13 C           6.9040   -0.0069    0.0000 C.3     1  UNL1       -0.0323
     14 C           8.0901    3.0726    0.0000 C.3     1  UNL1        0.0660
     15 C           6.8920   -1.0484    0.0000 C.3     1  UNL1       -0.0260
     16 C           8.4987    2.1664    0.0000 C.3     1  UNL1       -0.0226
     17 C           6.0322    1.4898    0.0000 C.3     1  UNL1       -0.0467
     18 C           6.0361    0.4898    0.0000 C.3     1  UNL1       -0.0489
     19 C           6.6995    3.8683    0.0000 C.3     1  UNL1        0.0160
     20 C           7.7920   -1.5727    0.0000 C.3     1  UNL1       -0.0330
     21 C           8.6801   -0.0069    0.0000 C.3     1  UNL1       -0.0494
     22 C           7.4324    4.5311    0.0000 C.3     1  UNL1        0.1732
     23 C           8.6921   -1.0484    0.0000 C.3     1  UNL1       -0.0494
     24 C           6.0284    2.4898    0.0000 C.3     1  UNL1       -0.0590
     25 C           5.9421   -1.5727    0.0000 C.3     1  UNL1       -0.0448
     26 C           7.8046   -2.6576    0.0000 C.3     1  UNL1       -0.0232
     27 C           6.0279   -0.5451    0.0000 C.3     1  UNL1       -0.0590
     28 C           5.9295   -2.6576    0.0000 C.3     1  UNL1       -0.0260
     29 C           5.7211    4.0750    0.0000 C.3     1  UNL1       -0.0572
     30 C           6.8671   -3.2038    0.0000 C.3     1  UNL1        0.0621
     31 C           8.2397    5.1213    0.0000 C.3     1  UNL1        0.0020
     32 C           8.1322    6.1155    0.0000 C.3     1  UNL1       -0.0435
     33 C           6.4102    5.9293    0.0000 C.3     1  UNL1        0.0535
     34 C           7.2174    6.5195    0.0000 C.3     1  UNL1       -0.0201
     35 C           7.1100    7.5138    0.0000 C.3     1  UNL1       -0.0603
     36 C           6.0010   -4.7038    0.0000 C.3     1  UNL1        0.1882
     37 C           6.0010   -5.7038    0.0000 C.3     1  UNL1        0.1341
     38 C           5.1350   -6.2038    0.0000 C.3     1  UNL1        0.1141
     39 C           4.2690   -4.7038    0.0000 C.3     1  UNL1        0.1130
     40 C           4.2690   -5.7038    0.0000 C.3     1  UNL1        0.1119
     41 C           3.4030   -4.2038    0.0000 C.3     1  UNL1        0.0730
     42 H           8.5426    1.1548    0.0000 H       1  UNL1        0.0310
     43 H           8.4993    0.9300    0.0000 H       1  UNL1        0.0306
     44 H           6.2565    2.8762    0.0000 H       1  UNL1        0.0335
     45 H           7.6385   -0.4347    0.0000 H       1  UNL1        0.0309
     46 H           8.9350    3.1658    0.0000 H       1  UNL1        0.0600
     47 H           8.8661    1.6670    0.0000 H       1  UNL1        0.0293
     48 H           9.0340    2.4792    0.0000 H       1  UNL1        0.0293
     49 H           5.8179    2.0716    0.0000 H       1  UNL1        0.0271
     50 H           5.4221    1.3798    0.0000 H       1  UNL1        0.0271
     51 H           5.4251    0.5951    0.0000 H       1  UNL1        0.0268
     52 H           5.8263   -0.0936    0.0000 H       1  UNL1        0.0268
     53 H           6.3097    3.3862    0.0000 H       1  UNL1        0.0354
     54 H           8.5314   -1.9920    0.0000 H       1  UNL1        0.0307
     55 H           9.2921   -0.1059    0.0000 H       1  UNL1        0.0268
     56 H           8.8824    0.5792    0.0000 H       1  UNL1        0.0268
     57 H           8.9079   -1.6297    0.0000 H       1  UNL1        0.0268
     58 H           9.3017   -0.9353    0.0000 H       1  UNL1        0.0268
     59 H           6.3363    3.0279    0.0000 H       1  UNL1        0.0235
     60 H           5.4902    2.7977    0.0000 H       1  UNL1        0.0235
     61 H           5.7204    1.9517    0.0000 H       1  UNL1        0.0235
     62 H           5.7398   -0.9866    0.0000 H       1  UNL1        0.0271
     63 H           5.3300   -1.6717    0.0000 H       1  UNL1        0.0271
     64 H           8.0204   -3.2389    0.0000 H       1  UNL1        0.0293
     65 H           8.4142   -2.5445    0.0000 H       1  UNL1        0.0293
     66 H           6.3400   -0.0093    0.0000 H       1  UNL1        0.0235
     67 H           5.4922   -0.2330    0.0000 H       1  UNL1        0.0235
     68 H           5.7158   -1.0808    0.0000 H       1  UNL1        0.0235
     69 H           5.3199   -2.5445    0.0000 H       1  UNL1        0.0290
     70 H           5.7137   -3.2389    0.0000 H       1  UNL1        0.0290
     71 H           5.8492    4.6816    0.0000 H       1  UNL1        0.0234
     72 H           5.1145    4.2032    0.0000 H       1  UNL1        0.0234
     73 H           5.5929    3.4684    0.0000 H       1  UNL1        0.0234
     74 H           7.4046   -3.5127    0.0000 H       1  UNL1        0.0597
     75 H           8.5132    4.5649    0.0000 H       1  UNL1        0.0317
     76 H           8.8352    5.2940    0.0000 H       1  UNL1        0.0317
     77 H           8.7508    6.0741    0.0000 H       1  UNL1        0.0270
     78 H           8.2804    6.7176    0.0000 H       1  UNL1        0.0270
     79 H           6.1367    6.4858    0.0000 H       1  UNL1        0.0563
     80 H           5.8147    5.7567    0.0000 H       1  UNL1        0.0563
     81 H           7.7180    6.8855    0.0000 H       1  UNL1        0.0320
     82 H           7.7264    7.5804    0.0000 H       1  UNL1        0.0233
     83 H           7.0433    8.1302    0.0000 H       1  UNL1        0.0233
     84 H           6.4935    7.4471    0.0000 H       1  UNL1        0.0233
     85 H           6.0010   -4.0838    0.0000 H       1  UNL1        0.0937
     86 H           6.0010   -6.3238    0.0000 H       1  UNL1        0.0671
     87 H           4.5981   -6.5138    0.0000 H       1  UNL1        0.0648
     88 H           4.2690   -4.0838    0.0000 H       1  UNL1        0.0647
     89 H           4.2690   -6.3238    0.0000 H       1  UNL1        0.0647
     90 H           6.8671   -6.8238    0.0000 H       1  UNL1        0.2101
     91 H           3.8015   -3.7288    0.0000 H       1  UNL1        0.0584
     92 H           3.0044   -3.7288    0.0000 H       1  UNL1        0.0584
     93 H           4.5981   -7.5138    0.0000 H       1  UNL1        0.2100
     94 H           3.4030   -6.8238    0.0000 H       1  UNL1        0.2100
     95 H           2.0000   -4.3938    0.0000 H       1  UNL1        0.2095
@<TRIPOS>BOND
     1     1    14    1
     2    22     1    1
     3     2    22    1
     4     2    33    1
     5    30     3    1
     6    36     3    1
     7     4    36    1
     8     4    39    1
     9    37     5    1
    10     5    90    1
    11    38     6    1
    12     6    93    1
    13    40     7    1
    14     7    94    1
    15     8    41    1
    16     8    95    1
    17     9    10    1
    18     9    12    1
    19     9    17    1
    20     9    24    1
    21    10    11    1
    22    10    16    1
    23    10    42    1
    24    11    13    1
    25    11    21    1
    26    11    43    1
    27    12    14    1
    28    12    19    1
    29    12    44    1
    30    13    15    1
    31    13    18    1
    32    13    45    1
    33    14    16    1
    34    14    46    1
    35    15    20    1
    36    15    25    1
    37    15    27    1
    38    16    47    1
    39    16    48    1
    40    17    18    1
    41    17    49    1
    42    17    50    1
    43    18    51    1
    44    18    52    1
    45    19    22    1
    46    19    29    1
    47    19    53    1
    48    20    23    1
    49    20    26    1
    50    20    54    1
    51    21    23    1
    52    21    55    1
    53    21    56    1
    54    22    31    1
    55    23    57    1
    56    23    58    1
    57    24    59    1
    58    24    60    1
    59    24    61    1
    60    25    28    1
    61    25    62    1
    62    25    63    1
    63    26    30    1
    64    26    64    1
    65    26    65    1
    66    27    66    1
    67    27    67    1
    68    27    68    1
    69    28    30    1
    70    28    69    1
    71    28    70    1
    72    29    71    1
    73    29    72    1
    74    29    73    1
    75    30    74    1
    76    31    32    1
    77    31    75    1
    78    31    76    1
    79    32    34    1
    80    32    77    1
    81    32    78    1
    82    33    34    1
    83    33    79    1
    84    33    80    1
    85    34    35    1
    86    34    81    1
    87    35    82    1
    88    35    83    1
    89    35    84    1
    90    36    37    1
    91    36    85    1
    92    37    38    1
    93    37    86    1
    94    38    40    1
    95    38    87    1
    96    39    40    1
    97    39    41    1
    98    39    88    1
    99    40    89    1
   100    41    91    1
   101    41    92    1
