@<TRIPOS>MOLECULE
IMPHY008317
 83 87 0 0 0
SMALL
GASTEIGER

@<TRIPOS>ATOM
      1 O           7.7289   -0.6141    0.0000 O.3     1  UNL1       -0.3474
      2 O           4.0913    0.9248    0.0000 O.3     1  UNL1       -0.3848
      3 O           6.0589    3.4458    0.0000 O.3     1  UNL1       -0.3877
      4 O           4.2576    2.4707    0.0000 O.3     1  UNL1       -0.4560
      5 O           6.8671   -2.1047    0.0000 O.3     1  UNL1       -0.3201
      6 O           6.9291    3.9257    0.0000 O.2     1  UNL1       -0.2882
      7 O           8.7151    4.9285    0.0000 O.2     1  UNL1       -0.4919
      8 O           5.1350   -2.1047    0.0000 O.3     1  UNL1       -0.3404
      9 O           3.3565    0.9915    0.0000 O.2     1  UNL1       -0.2512
     10 O           6.8671   -4.1047    0.0000 O.3     1  UNL1       -0.3841
     11 O           5.1350   -5.1047    0.0000 O.3     1  UNL1       -0.3864
     12 O           3.4030   -4.1047    0.0000 O.3     1  UNL1       -0.3865
     13 O           2.5369   -2.6047    0.0000 O.3     1  UNL1       -0.3924
     14 C           6.8912    0.8944    0.0000 C.3     1  UNL1        0.0061
     15 C           6.9109    1.8942    0.0000 C.3     1  UNL1        0.0095
     16 C           5.9869    0.3774    0.0000 C.3     1  UNL1        0.0039
     17 C           7.7866    2.3770    0.0000 C.3     1  UNL1        0.0429
     18 C           7.7472    0.3774    0.0000 C.3     1  UNL1        0.0680
     19 C           8.6426    1.8601    0.0000 C.3     1  UNL1       -0.0222
     20 C           5.0911    0.9090    0.0000 C.3     1  UNL1        0.1060
     21 C           6.0277    2.4463    0.0000 C.3     1  UNL1        0.0991
     22 C           8.6229    0.8603    0.0000 C.3     1  UNL1       -0.0219
     23 C           5.1116    1.9504    0.0000 C.3     1  UNL1        0.1575
     24 C           6.0052   -0.6141    0.0000 C.3     1  UNL1        0.0047
     25 C           6.0352    1.4113    0.0000 C.3     1  UNL1       -0.0565
     26 C           6.8671   -1.1047    0.0000 C.3     1  UNL1        0.1630
     27 C           6.9306    2.8940    0.0000 C.3     1  UNL1       -0.0518
     28 C           9.5624    2.3489    0.0000 C.3     1  UNL1       -0.0271
     29 C           7.7910    3.4186    0.0000 C.2     1  UNL1        0.2034
     30 C           4.5775    0.0510    0.0000 C.3     1  UNL1       -0.0322
     31 C           8.6993    3.9286    0.0000 C.2     1  UNL1        0.1590
     32 C           9.5910    3.3901    0.0000 C.2     1  UNL1       -0.0385
     33 C           6.0010   -2.6047    0.0000 C.3     1  UNL1        0.1908
     34 C           3.3801    1.9912    0.0000 C.2     1  UNL1        0.3044
     35 C           6.0010   -3.6047    0.0000 C.3     1  UNL1        0.1342
     36 C           2.5261    2.5114    0.0000 C.3     1  UNL1        0.0332
     37 C           5.1350   -4.1047    0.0000 C.3     1  UNL1        0.1141
     38 C           9.5890    5.4147    0.0000 C.3     1  UNL1        0.0789
     39 C           4.2690   -2.6047    0.0000 C.3     1  UNL1        0.1130
     40 C           4.2690   -3.6047    0.0000 C.3     1  UNL1        0.1119
     41 C           3.4030   -2.1047    0.0000 C.3     1  UNL1        0.0730
     42 H           7.6385    1.4548    0.0000 H       1  UNL1        0.0343
     43 H           5.2522   -0.0500    0.0000 H       1  UNL1        0.0337
     44 H           8.4751   -0.0616    0.0000 H       1  UNL1        0.0603
     45 H           9.3668    1.4150    0.0000 H       1  UNL1        0.0314
     46 H           6.5746    2.7383    0.0000 H       1  UNL1        0.0634
     47 H           8.8235    0.2736    0.0000 H       1  UNL1        0.0293
     48 H           9.2355    0.9559    0.0000 H       1  UNL1        0.0293
     49 H           5.1274    2.5702    0.0000 H       1  UNL1        0.0789
     50 H           5.3931   -0.5152    0.0000 H       1  UNL1        0.0318
     51 H           5.7991   -1.1989    0.0000 H       1  UNL1        0.0318
     52 H           6.3557    1.9420    0.0000 H       1  UNL1        0.0236
     53 H           5.5045    1.7318    0.0000 H       1  UNL1        0.0236
     54 H           5.7147    0.8806    0.0000 H       1  UNL1        0.0236
     55 H           6.3311   -1.4164    0.0000 H       1  UNL1        0.0911
     56 H           7.2511    3.4247    0.0000 H       1  UNL1        0.0239
     57 H           6.3999    3.2145    0.0000 H       1  UNL1        0.0239
     58 H           6.6101    2.3632    0.0000 H       1  UNL1        0.0239
     59 H           9.7554    1.7597    0.0000 H       1  UNL1        0.0312
     60 H          10.1759    2.4382    0.0000 H       1  UNL1        0.0312
     61 H           4.0455    0.3695    0.0000 H       1  UNL1        0.0259
     62 H           4.2590   -0.4810    0.0000 H       1  UNL1        0.0259
     63 H           5.1094   -0.2675    0.0000 H       1  UNL1        0.0259
     64 H           3.7728    0.3929    0.0000 H       1  UNL1        0.2103
     65 H           5.5319    3.7725    0.0000 H       1  UNL1        0.2100
     66 H          10.1350    3.6874    0.0000 H       1  UNL1        0.0609
     67 H           6.0010   -1.9847    0.0000 H       1  UNL1        0.0938
     68 H           6.5380   -3.2947    0.0000 H       1  UNL1        0.0671
     69 H           2.8486    3.0409    0.0000 H       1  UNL1        0.0342
     70 H           1.9966    2.8340    0.0000 H       1  UNL1        0.0342
     71 H           2.2035    1.9820    0.0000 H       1  UNL1        0.0342
     72 H           5.6720   -4.4147    0.0000 H       1  UNL1        0.0648
     73 H           9.8904    4.8729    0.0000 H       1  UNL1        0.0660
     74 H          10.1308    5.7162    0.0000 H       1  UNL1        0.0660
     75 H           9.2875    5.9565    0.0000 H       1  UNL1        0.0660
     76 H           4.2690   -1.9847    0.0000 H       1  UNL1        0.0647
     77 H           3.7320   -3.2947    0.0000 H       1  UNL1        0.0647
     78 H           6.8671   -4.7247    0.0000 H       1  UNL1        0.2101
     79 H           3.8015   -1.6298    0.0000 H       1  UNL1        0.0584
     80 H           3.0044   -1.6298    0.0000 H       1  UNL1        0.0584
     81 H           4.5981   -5.4147    0.0000 H       1  UNL1        0.2100
     82 H           3.4030   -4.7247    0.0000 H       1  UNL1        0.2100
     83 H           2.0000   -2.2947    0.0000 H       1  UNL1        0.2095
@<TRIPOS>BOND
     1     1    18    1
     2     1    26    1
     3    20     2    1
     4     2    64    1
     5    21     3    1
     6     3    65    1
     7    23     4    1
     8     4    34    1
     9    26     5    1
    10    33     5    1
    11     6    29    2
    12     7    31    1
    13     7    38    1
    14     8    33    1
    15     8    39    1
    16     9    34    2
    17    35    10    1
    18    10    78    1
    19    37    11    1
    20    11    81    1
    21    40    12    1
    22    12    82    1
    23    13    41    1
    24    13    83    1
    25    14    15    1
    26    14    16    1
    27    14    18    1
    28    14    25    1
    29    15    17    1
    30    15    21    1
    31    15    42    1
    32    16    20    1
    33    16    24    1
    34    16    43    1
    35    17    19    1
    36    17    27    1
    37    17    29    1
    38    18    22    1
    39    18    44    1
    40    19    22    1
    41    19    28    1
    42    19    45    1
    43    20    23    1
    44    20    30    1
    45    21    23    1
    46    21    46    1
    47    22    47    1
    48    22    48    1
    49    23    49    1
    50    24    26    1
    51    24    50    1
    52    24    51    1
    53    25    52    1
    54    25    53    1
    55    25    54    1
    56    26    55    1
    57    27    56    1
    58    27    57    1
    59    27    58    1
    60    28    32    1
    61    28    59    1
    62    28    60    1
    63    29    31    1
    64    30    61    1
    65    30    62    1
    66    30    63    1
    67    31    32    2
    68    32    66    1
    69    33    35    1
    70    33    67    1
    71    34    36    1
    72    35    37    1
    73    35    68    1
    74    36    69    1
    75    36    70    1
    76    36    71    1
    77    37    40    1
    78    37    72    1
    79    38    73    1
    80    38    74    1
    81    38    75    1
    82    39    40    1
    83    39    41    1
    84    39    76    1
    85    40    77    1
    86    41    79    1
    87    41    80    1
