@<TRIPOS>MOLECULE
IMPHY009668
 60 64 0 0 0
SMALL
GASTEIGER

@<TRIPOS>ATOM
      1 O           7.9288   -2.5043    0.0000 O.3     1  UNL1       -0.3877
      2 O           2.5357   -3.5566    0.0000 O.3     1  UNL1       -0.3878
      3 O          10.4749    1.9077    0.0000 O.2     1  UNL1       -0.4303
      4 O          10.1177    3.6025    0.0000 O.2     1  UNL1       -0.2452
      5 C           7.9288   -1.5043    0.0000 C.3     1  UNL1        0.0751
      6 C           7.9288   -0.5043    0.0000 C.3     1  UNL1        0.0039
      7 C           7.0628   -2.0043    0.0000 C.3     1  UNL1       -0.0077
      8 C           6.1968   -1.5043    0.0000 C.3     1  UNL1       -0.0265
      9 C           5.2868   -2.0112    0.0000 C.3     1  UNL1       -0.0077
     10 C           8.8750   -0.1996    0.0000 C.3     1  UNL1       -0.0049
     11 C           7.0628   -0.0043    0.0000 C.3     1  UNL1       -0.0442
     12 C           6.1968   -0.5043    0.0000 C.3     1  UNL1       -0.0485
     13 C           8.8750   -1.8090    0.0000 C.3     1  UNL1       -0.0226
     14 C           9.4586   -1.0043    0.0000 C.3     1  UNL1       -0.0429
     15 C           7.0789   -3.0458    0.0000 C.3     1  UNL1       -0.0436
     16 C           5.2787   -3.0528    0.0000 C.2     1  UNL1       -0.0649
     17 C           7.9288    0.4957    0.0000 C.3     1  UNL1       -0.0564
     18 C           6.1808   -3.5736    0.0000 C.3     1  UNL1       -0.0308
     19 C           4.3599   -1.4471    0.0000 C.3     1  UNL1       -0.0410
     20 C           5.2945   -1.0112    0.0000 C.3     1  UNL1       -0.0556
     21 C           9.1857    0.7509    0.0000 C.ar    1  UNL1       -0.0085
     22 C           3.4120   -1.9750    0.0000 C.3     1  UNL1       -0.0224
     23 C           4.3433   -3.6025    0.0000 C.2     1  UNL1       -0.0561
     24 C           3.4037   -3.0600    0.0000 C.3     1  UNL1        0.0736
     25 C           8.5179    1.4952    0.0000 C.ar    1  UNL1       -0.0486
     26 C          10.1642    0.9572    0.0000 C.ar    1  UNL1        0.0994
     27 C           8.8285    2.4458    0.0000 C.ar    1  UNL1        0.0233
     28 C           9.8070    2.6520    0.0000 C.ar    1  UNL1        0.3367
     29 H           7.8022   -2.4236    0.0000 H       1  UNL1        0.0332
     30 H           6.9329   -1.0793    0.0000 H       1  UNL1        0.0313
     31 H           9.4875   -0.1034    0.0000 H       1  UNL1        0.0356
     32 H           7.4613    0.4706    0.0000 H       1  UNL1        0.0272
     33 H           6.6643    0.4706    0.0000 H       1  UNL1        0.0272
     34 H           5.9847    0.0783    0.0000 H       1  UNL1        0.0268
     35 H           5.5862   -0.6120    0.0000 H       1  UNL1        0.0268
     36 H           8.6240   -2.3760    0.0000 H       1  UNL1        0.0293
     37 H           9.4124   -2.1183    0.0000 H       1  UNL1        0.0293
     38 H           9.9195   -1.4190    0.0000 H       1  UNL1        0.0272
     39 H           9.9195   -0.5896    0.0000 H       1  UNL1        0.0272
     40 H           7.2969   -3.6262    0.0000 H       1  UNL1        0.0272
     41 H           7.6880   -2.9303    0.0000 H       1  UNL1        0.0272
     42 H           8.5488    0.4957    0.0000 H       1  UNL1        0.0236
     43 H           7.9288    1.1157    0.0000 H       1  UNL1        0.0236
     44 H           7.3088    0.4957    0.0000 H       1  UNL1        0.0236
     45 H           5.7835   -4.0496    0.0000 H       1  UNL1        0.0310
     46 H           6.5818   -4.0465    0.0000 H       1  UNL1        0.0310
     47 H           4.7681   -0.9804    0.0000 H       1  UNL1        0.0275
     48 H           3.9700   -0.9650    0.0000 H       1  UNL1        0.0275
     49 H           8.4658   -2.8143    0.0000 H       1  UNL1        0.2102
     50 H           5.9145   -1.0160    0.0000 H       1  UNL1        0.0238
     51 H           5.2993   -0.3912    0.0000 H       1  UNL1        0.0238
     52 H           4.6745   -1.0064    0.0000 H       1  UNL1        0.0238
     53 H           3.2075   -1.3898    0.0000 H       1  UNL1        0.0293
     54 H           2.8004   -2.0764    0.0000 H       1  UNL1        0.0293
     55 H           4.3457   -4.2225    0.0000 H       1  UNL1        0.0597
     56 H           3.4025   -3.6800    0.0000 H       1  UNL1        0.0638
     57 H           7.9112    1.3674    0.0000 H       1  UNL1        0.0623
     58 H          10.5783    0.4957    0.0000 H       1  UNL1        0.1033
     59 H           2.0000   -3.2446    0.0000 H       1  UNL1        0.2102
     60 H           8.4145    2.9072    0.0000 H       1  UNL1        0.0689
@<TRIPOS>BOND
     1     5     1    1
     2     1    49    1
     3    24     2    1
     4     2    59    1
     5     3    26   ar
     6     3    28   ar
     7     4    28    2
     8     5     6    1
     9     5     7    1
    10     5    13    1
    11     6    10    1
    12     6    11    1
    13     6    17    1
    14     7     8    1
    15     7    15    1
    16     7    29    1
    17     8     9    1
    18     8    12    1
    19     8    30    1
    20     9    16    1
    21     9    19    1
    22     9    20    1
    23    10    14    1
    24    10    21    1
    25    10    31    1
    26    11    12    1
    27    11    32    1
    28    11    33    1
    29    12    34    1
    30    12    35    1
    31    13    14    1
    32    13    36    1
    33    13    37    1
    34    14    38    1
    35    14    39    1
    36    15    18    1
    37    15    40    1
    38    15    41    1
    39    16    18    1
    40    16    23    2
    41    17    42    1
    42    17    43    1
    43    17    44    1
    44    18    45    1
    45    18    46    1
    46    19    22    1
    47    19    47    1
    48    19    48    1
    49    20    50    1
    50    20    51    1
    51    20    52    1
    52    21    25   ar
    53    21    26   ar
    54    22    24    1
    55    22    53    1
    56    22    54    1
    57    23    24    1
    58    23    55    1
    59    24    56    1
    60    25    27   ar
    61    25    57    1
    62    26    58    1
    63    27    28   ar
    64    27    60    1
