@<TRIPOS>MOLECULE
IMPHY014368
 72 77 0 0 0
SMALL
GASTEIGER

@<TRIPOS>ATOM
      1 O           9.2380    0.2750    0.0000 O.3     1  UNL1       -0.4586
      2 O           8.2738   -1.3446    0.0000 O.3     1  UNL1       -0.3749
      3 O           6.8671   -2.0068    0.0000 O.3     1  UNL1       -0.3420
      4 O           6.8869    4.1317    0.0000 O.3     1  UNL1       -0.4562
      5 O           9.2126   -1.4825    0.0000 O.2     1  UNL1       -0.2475
      6 O           8.6565    4.0871    0.0000 O.2     1  UNL1       -0.2505
      7 O           5.1350   -2.0068    0.0000 O.3     1  UNL1       -0.3405
      8 O           3.5341    4.4508    0.0000 O.2     1  UNL1       -0.4706
      9 O           6.8671   -4.0068    0.0000 O.3     1  UNL1       -0.3841
     10 O           5.1350   -5.0068    0.0000 O.3     1  UNL1       -0.3864
     11 O           3.4030   -4.0068    0.0000 O.3     1  UNL1       -0.3865
     12 O           2.5369   -2.5068    0.0000 O.3     1  UNL1       -0.3924
     13 C           7.7551    0.5591    0.0000 C.3     1  UNL1        0.0499
     14 C           6.8910    1.0624    0.0000 C.3     1  UNL1       -0.0226
     15 C           6.8948    2.0624    0.0000 C.3     1  UNL1       -0.0119
     16 C           7.7671   -0.4825    0.0000 C.3     1  UNL1        0.1974
     17 C           8.6230    1.0557    0.0000 C.3     1  UNL1        0.1128
     18 C           7.7628    2.5590    0.0000 C.3     1  UNL1        0.0656
     19 C           5.9790    0.5591    0.0000 C.3     1  UNL1       -0.0465
     20 C           8.6269    2.0557    0.0000 C.3     1  UNL1       -0.0016
     21 C           6.8671   -1.0068    0.0000 C.3     1  UNL1        0.1015
     22 C           5.9868    2.5727    0.0000 C.3     1  UNL1       -0.0049
     23 C           5.9670   -0.4825    0.0000 C.3     1  UNL1       -0.0229
     24 C           6.8871    0.0624    0.0000 C.3     1  UNL1       -0.0526
     25 C           8.7547   -0.5935    0.0000 C.2     1  UNL1        0.3427
     26 C           6.0269    1.5657    0.0000 C.3     1  UNL1       -0.0584
     27 C           5.9828    3.6144    0.0000 C.3     1  UNL1        0.1315
     28 C           7.7829    3.6005    0.0000 C.2     1  UNL1        0.3114
     29 C           5.1168    4.1144    0.0000 C.ar    1  UNL1        0.0304
     30 C           6.0010   -2.5068    0.0000 C.3     1  UNL1        0.1884
     31 C           6.0010   -3.5068    0.0000 C.3     1  UNL1        0.1341
     32 C           5.0122    5.1089    0.0000 C.ar    1  UNL1       -0.0172
     33 C           4.2032    3.7076    0.0000 C.ar    1  UNL1        0.0983
     34 C           5.1350   -4.0068    0.0000 C.3     1  UNL1        0.1141
     35 C           4.2690   -2.5068    0.0000 C.3     1  UNL1        0.1130
     36 C           4.2690   -3.5068    0.0000 C.3     1  UNL1        0.1119
     37 C           4.0341    5.3168    0.0000 C.ar    1  UNL1        0.0921
     38 C           3.4030   -2.0068    0.0000 C.3     1  UNL1        0.0730
     39 H           7.6288    1.4846    0.0000 H       1  UNL1        0.0314
     40 H           9.4267    1.3325    0.0000 H       1  UNL1        0.0741
     41 H           8.5038    2.9755    0.0000 H       1  UNL1        0.0420
     42 H           5.7768    1.1451    0.0000 H       1  UNL1        0.0269
     43 H           5.3670    0.4600    0.0000 H       1  UNL1        0.0269
     44 H           9.2370    1.9457    0.0000 H       1  UNL1        0.0309
     45 H           8.8412    2.6375    0.0000 H       1  UNL1        0.0309
     46 H           7.4046   -1.3158    0.0000 H       1  UNL1        0.0632
     47 H           5.3755    2.6765    0.0000 H       1  UNL1        0.0310
     48 H           5.7800    1.9882    0.0000 H       1  UNL1        0.0310
     49 H           5.3574   -0.3694    0.0000 H       1  UNL1        0.0291
     50 H           5.7512   -1.0637    0.0000 H       1  UNL1        0.0291
     51 H           6.5792    0.6005    0.0000 H       1  UNL1        0.0237
     52 H           6.3490   -0.2455    0.0000 H       1  UNL1        0.0237
     53 H           7.1951   -0.4757    0.0000 H       1  UNL1        0.0237
     54 H           5.7190    2.1038    0.0000 H       1  UNL1        0.0235
     55 H           5.4888    1.2578    0.0000 H       1  UNL1        0.0235
     56 H           6.3348    1.0276    0.0000 H       1  UNL1        0.0235
     57 H           5.9840    4.2344    0.0000 H       1  UNL1        0.0786
     58 H           7.9679   -1.8840    0.0000 H       1  UNL1        0.2110
     59 H           6.0010   -1.8868    0.0000 H       1  UNL1        0.0938
     60 H           6.0010   -4.1268    0.0000 H       1  UNL1        0.0671
     61 H           5.4730    5.5237    0.0000 H       1  UNL1        0.0653
     62 H           4.0743    3.1012    0.0000 H       1  UNL1        0.1033
     63 H           4.5981   -4.3168    0.0000 H       1  UNL1        0.0648
     64 H           4.2690   -1.8868    0.0000 H       1  UNL1        0.0647
     65 H           4.2690   -4.1268    0.0000 H       1  UNL1        0.0647
     66 H           3.7819    5.8832    0.0000 H       1  UNL1        0.1029
     67 H           6.8671   -4.6268    0.0000 H       1  UNL1        0.2101
     68 H           3.8015   -1.5318    0.0000 H       1  UNL1        0.0584
     69 H           3.0044   -1.5318    0.0000 H       1  UNL1        0.0584
     70 H           4.5981   -5.3168    0.0000 H       1  UNL1        0.2100
     71 H           3.4030   -4.6268    0.0000 H       1  UNL1        0.2100
     72 H           2.0000   -2.1968    0.0000 H       1  UNL1        0.2095
@<TRIPOS>BOND
     1     1    17    1
     2     1    25    1
     3    16     2    1
     4     2    58    1
     5    21     3    1
     6    30     3    1
     7     4    27    1
     8     4    28    1
     9     5    25    2
    10     6    28    2
    11     7    30    1
    12     7    35    1
    13     8    33   ar
    14     8    37   ar
    15    31     9    1
    16     9    67    1
    17    34    10    1
    18    10    70    1
    19    36    11    1
    20    11    71    1
    21    12    38    1
    22    12    72    1
    23    13    14    1
    24    13    16    1
    25    13    17    1
    26    13    24    1
    27    14    15    1
    28    14    19    1
    29    14    39    1
    30    15    18    1
    31    15    22    1
    32    15    26    1
    33    16    21    1
    34    16    25    1
    35    17    20    1
    36    17    40    1
    37    18    20    1
    38    18    28    1
    39    18    41    1
    40    19    23    1
    41    19    42    1
    42    19    43    1
    43    20    44    1
    44    20    45    1
    45    21    23    1
    46    21    46    1
    47    22    27    1
    48    22    47    1
    49    22    48    1
    50    23    49    1
    51    23    50    1
    52    24    51    1
    53    24    52    1
    54    24    53    1
    55    26    54    1
    56    26    55    1
    57    26    56    1
    58    27    29    1
    59    27    57    1
    60    29    32   ar
    61    29    33   ar
    62    30    31    1
    63    30    59    1
    64    31    34    1
    65    31    60    1
    66    32    37   ar
    67    32    61    1
    68    33    62    1
    69    34    36    1
    70    34    63    1
    71    35    36    1
    72    35    38    1
    73    35    64    1
    74    36    65    1
    75    37    66    1
    76    38    68    1
    77    38    69    1
