@<TRIPOS>MOLECULE
IMPHY000400
 72 74 0 0 0
SMALL
GASTEIGER

@<TRIPOS>ATOM
      1 O           6.8671   -1.9695    0.0000 O.3     1  UNL1       -0.3448
      2 O           5.1350   -1.9695    0.0000 O.3     1  UNL1       -0.3405
      3 O           6.8671   -3.9695    0.0000 O.3     1  UNL1       -0.3841
      4 O           5.1350   -4.9695    0.0000 O.3     1  UNL1       -0.3864
      5 O           3.4030   -3.9695    0.0000 O.3     1  UNL1       -0.3865
      6 O           5.2395    1.6229    0.0000 O.3     1  UNL1       -0.4647
      7 O          10.2267    1.6229    0.0000 O.3     1  UNL1       -0.4643
      8 O           2.5369   -2.4695    0.0000 O.3     1  UNL1       -0.3924
      9 O           6.5663    2.7362    0.0000 O.2     1  UNL1       -0.2453
     10 O          10.3312   -0.9695    0.0000 O.2     1  UNL1       -0.3010
     11 O           8.8999    2.7362    0.0000 O.2     1  UNL1       -0.2508
     12 O          14.4255    5.2795    0.0000 O.3     1  UNL1       -0.5068
     13 C           7.7331   -0.4695    0.0000 C.3     1  UNL1       -0.0004
     14 C           6.8671   -0.9695    0.0000 C.3     1  UNL1        0.0690
     15 C           7.7331    0.5305    0.0000 C.3     1  UNL1        0.0062
     16 C           6.0010   -0.4695    0.0000 C.3     1  UNL1       -0.0072
     17 C           6.0010   -2.4695    0.0000 C.3     1  UNL1        0.1882
     18 C           6.8671    1.0305    0.0000 C.2     1  UNL1        0.0367
     19 C           8.5991   -0.9695    0.0000 C.3     1  UNL1        0.0085
     20 C           6.0010   -3.4695    0.0000 C.3     1  UNL1        0.1341
     21 C           8.5991    1.0305    0.0000 C.3     1  UNL1        0.0523
     22 C           5.1350   -3.9695    0.0000 C.3     1  UNL1        0.1141
     23 C           6.0010    0.5305    0.0000 C.2     1  UNL1       -0.0713
     24 C           4.2690   -3.4695    0.0000 C.3     1  UNL1        0.1119
     25 C           4.2690   -2.4695    0.0000 C.3     1  UNL1        0.1130
     26 C           6.2243    1.7966    0.0000 C.2     1  UNL1        0.3349
     27 C           3.4030   -1.9695    0.0000 C.3     1  UNL1        0.0730
     28 C           9.4651   -0.4695    0.0000 C.2     1  UNL1        0.1207
     29 C           9.2419    1.7966    0.0000 C.2     1  UNL1        0.3077
     30 C          10.8695    2.3890    0.0000 C.3     1  UNL1        0.0964
     31 C           4.5967    2.3890    0.0000 C.3     1  UNL1        0.0820
     32 C          11.8543    2.2153    0.0000 C.3     1  UNL1        0.0067
     33 C          12.4971    2.9814    0.0000 C.ar    1  UNL1       -0.0439
     34 C          13.4819    2.8077    0.0000 C.ar    1  UNL1       -0.0550
     35 C          12.1551    3.9210    0.0000 C.ar    1  UNL1       -0.0550
     36 C          14.1247    3.5738    0.0000 C.ar    1  UNL1       -0.0199
     37 C          12.7979    4.6871    0.0000 C.ar    1  UNL1       -0.0199
     38 C          13.7827    4.5134    0.0000 C.ar    1  UNL1        0.1169
     39 H           8.2700   -0.1595    0.0000 H       1  UNL1        0.0336
     40 H           7.4040   -1.2795    0.0000 H       1  UNL1        0.0603
     41 H           7.7331    1.1505    0.0000 H       1  UNL1        0.0360
     42 H           5.3905   -0.3618    0.0000 H       1  UNL1        0.0333
     43 H           5.7890   -1.0521    0.0000 H       1  UNL1        0.0333
     44 H           6.5380   -2.7795    0.0000 H       1  UNL1        0.0937
     45 H           8.2006   -1.4444    0.0000 H       1  UNL1        0.0342
     46 H           8.9976   -1.4444    0.0000 H       1  UNL1        0.0342
     47 H           6.0010   -4.0895    0.0000 H       1  UNL1        0.0671
     48 H           8.6711    0.4147    0.0000 H       1  UNL1        0.0384
     49 H           8.2006    1.5055    0.0000 H       1  UNL1        0.0384
     50 H           4.5981   -4.2795    0.0000 H       1  UNL1        0.0648
     51 H           5.4641    0.8405    0.0000 H       1  UNL1        0.0578
     52 H           3.7320   -3.1595    0.0000 H       1  UNL1        0.0647
     53 H           4.2690   -1.8495    0.0000 H       1  UNL1        0.0647
     54 H           3.8015   -1.4945    0.0000 H       1  UNL1        0.0584
     55 H           3.0044   -1.4945    0.0000 H       1  UNL1        0.0584
     56 H           9.4651    0.1505    0.0000 H       1  UNL1        0.1026
     57 H           6.8671   -4.5895    0.0000 H       1  UNL1        0.2101
     58 H           4.5981   -5.2795    0.0000 H       1  UNL1        0.2100
     59 H           3.4030   -4.5895    0.0000 H       1  UNL1        0.2100
     60 H           2.0000   -2.1595    0.0000 H       1  UNL1        0.2095
     61 H          11.0815    2.9716    0.0000 H       1  UNL1        0.0701
     62 H          10.3326    2.6990    0.0000 H       1  UNL1        0.0701
     63 H           5.0716    2.7875    0.0000 H       1  UNL1        0.0661
     64 H           4.1982    2.8639    0.0000 H       1  UNL1        0.0661
     65 H           4.1217    1.9904    0.0000 H       1  UNL1        0.0661
     66 H          11.6423    1.6327    0.0000 H       1  UNL1        0.0346
     67 H          12.3912    1.9053    0.0000 H       1  UNL1        0.0346
     68 H          13.6940    2.2251    0.0000 H       1  UNL1        0.0621
     69 H          11.5445    4.0287    0.0000 H       1  UNL1        0.0621
     70 H          14.7353    3.4661    0.0000 H       1  UNL1        0.0654
     71 H          12.5858    5.2697    0.0000 H       1  UNL1        0.0654
     72 H          15.0360    5.1718    0.0000 H       1  UNL1        0.2921
@<TRIPOS>BOND
     1    14     1    1
     2    17     1    1
     3     2    17    1
     4     2    25    1
     5    20     3    1
     6     3    57    1
     7    22     4    1
     8     4    58    1
     9    24     5    1
    10     5    59    1
    11     6    26    1
    12     6    31    1
    13     7    29    1
    14     7    30    1
    15     8    27    1
    16     8    60    1
    17     9    26    2
    18    10    28    2
    19    11    29    2
    20    12    38    1
    21    12    72    1
    22    13    14    1
    23    13    15    1
    24    13    19    1
    25    13    39    1
    26    14    16    1
    27    14    40    1
    28    15    18    1
    29    15    21    1
    30    15    41    1
    31    16    23    1
    32    16    42    1
    33    16    43    1
    34    17    20    1
    35    17    44    1
    36    18    23    2
    37    18    26    1
    38    19    28    1
    39    19    45    1
    40    19    46    1
    41    20    22    1
    42    20    47    1
    43    21    29    1
    44    21    48    1
    45    21    49    1
    46    22    24    1
    47    22    50    1
    48    23    51    1
    49    24    25    1
    50    24    52    1
    51    25    27    1
    52    25    53    1
    53    27    54    1
    54    27    55    1
    55    28    56    1
    56    30    32    1
    57    30    61    1
    58    30    62    1
    59    31    63    1
    60    31    64    1
    61    31    65    1
    62    32    33    1
    63    32    66    1
    64    32    67    1
    65    33    34   ar
    66    33    35   ar
    67    34    36   ar
    68    34    68    1
    69    35    37   ar
    70    35    69    1
    71    36    38   ar
    72    36    70    1
    73    37    38   ar
    74    37    71    1
