@<TRIPOS>MOLECULE
IMPHY001203
 149 156 0 0 0
SMALL
GASTEIGER

@<TRIPOS>ATOM
      1 O           6.8671   -2.2722    0.0000 O.3     1  UNL1       -0.3448
      2 O           8.6424    7.0822    0.0000 O.3     1  UNL1       -0.4609
      3 O           9.3112   -1.5806    0.0000 O.3     1  UNL1       -0.3944
      4 O           5.1350   -2.2722    0.0000 O.3     1  UNL1       -0.3315
      5 O           6.8671   -4.2722    0.0000 O.3     1  UNL1       -0.3377
      6 O           7.7764    8.5822    0.0000 O.2     1  UNL1       -0.2512
      7 O           5.1350   -5.2722    0.0000 O.3     1  UNL1       -0.3864
      8 O           3.4030   -4.2722    0.0000 O.3     1  UNL1       -0.3860
      9 O           6.0010   -5.7722    0.0000 O.3     1  UNL1       -0.3405
     10 O           2.5369   -2.7722    0.0000 O.3     1  UNL1       -0.4788
     11 O           3.4030   -1.2723    0.0000 O.2     1  UNL1       -0.2480
     12 O           8.5991   -5.2722    0.0000 O.3     1  UNL1       -0.3378
     13 O           8.5991   -7.2722    0.0000 O.3     1  UNL1       -0.3864
     14 O           6.8671   -8.2722    0.0000 O.3     1  UNL1       -0.3865
     15 O           9.4651   -6.7722    0.0000 O.3     1  UNL1       -0.3431
     16 O           5.1350   -8.2722    0.0000 O.3     1  UNL1       -0.3924
     17 O          10.3312   -4.2722    0.0000 O.3     1  UNL1       -0.3841
     18 O          12.0632   -5.2722    0.0000 O.3     1  UNL1       -0.3864
     19 O          12.0632   -7.2722    0.0000 O.3     1  UNL1       -0.3866
     20 C           7.7681    2.4280    0.0000 C.3     1  UNL1       -0.0194
     21 C           6.9040    1.9246    0.0000 C.3     1  UNL1       -0.0257
     22 C           6.8920    0.8831    0.0000 C.3     1  UNL1       -0.0249
     23 C           7.7643    3.4280    0.0000 C.3     1  UNL1       -0.0051
     24 C           7.7920    0.3588    0.0000 C.3     1  UNL1       -0.0255
     25 C           8.6801    1.9246    0.0000 C.3     1  UNL1       -0.0463
     26 C           6.8963    3.9246    0.0000 C.2     1  UNL1       -0.0633
     27 C           7.8046   -0.7261    0.0000 C.3     1  UNL1        0.0206
     28 C           8.6921    0.8831    0.0000 C.3     1  UNL1       -0.0485
     29 C           6.8762    4.9661    0.0000 C.3     1  UNL1       -0.0101
     30 C           7.7722    5.4973    0.0000 C.3     1  UNL1        0.0115
     31 C           8.6723    3.9383    0.0000 C.3     1  UNL1       -0.0428
     32 C           6.0361    2.4213    0.0000 C.3     1  UNL1       -0.0306
     33 C           5.9421    0.3588    0.0000 C.3     1  UNL1       -0.0447
     34 C           8.6763    4.9799    0.0000 C.3     1  UNL1       -0.0429
     35 C           8.7522    2.6054    0.0000 C.3     1  UNL1       -0.0585
     36 C           6.8671   -1.2723    0.0000 C.3     1  UNL1        0.0695
     37 C           6.0322    3.4213    0.0000 C.2     1  UNL1       -0.0836
     38 C           6.0279    1.3864    0.0000 C.3     1  UNL1       -0.0590
     39 C           5.9295   -0.7261    0.0000 C.3     1  UNL1       -0.0254
     40 C           8.7497    3.2581    0.0000 C.3     1  UNL1       -0.0553
     41 C           5.9223    5.4830    0.0000 C.3     1  UNL1       -0.0406
     42 C           7.7764    6.5822    0.0000 C.3     1  UNL1        0.1094
     43 C           5.9014    6.5678    0.0000 C.3     1  UNL1       -0.0310
     44 C           6.8347    7.1211    0.0000 C.3     1  UNL1       -0.0099
     45 C           8.8046   -0.7184    0.0000 C.3     1  UNL1        0.0522
     46 C           8.3113   -1.5883    0.0000 C.3     1  UNL1       -0.0548
     47 C           8.6324    6.0072    0.0000 C.3     1  UNL1       -0.0556
     48 C           5.3881    7.4260    0.0000 C.3     1  UNL1       -0.0597
     49 C           4.9015    6.5524    0.0000 C.3     1  UNL1       -0.0597
     50 C           6.0010   -2.7722    0.0000 C.3     1  UNL1        0.1892
     51 C           6.0010   -3.7722    0.0000 C.3     1  UNL1        0.1407
     52 C           8.6424    8.0822    0.0000 C.2     1  UNL1        0.3042
     53 C           5.1350   -4.2722    0.0000 C.3     1  UNL1        0.1149
     54 C           4.2690   -2.7722    0.0000 C.3     1  UNL1        0.1859
     55 C           4.2690   -3.7722    0.0000 C.3     1  UNL1        0.1202
     56 C           9.5085    8.5822    0.0000 C.3     1  UNL1        0.0332
     57 C           6.8671   -5.2722    0.0000 C.3     1  UNL1        0.1889
     58 C           3.4030   -2.2722    0.0000 C.2     1  UNL1        0.3367
     59 C           7.7331   -5.7722    0.0000 C.3     1  UNL1        0.1406
     60 C           7.7331   -6.7722    0.0000 C.3     1  UNL1        0.1144
     61 C           6.0010   -6.7722    0.0000 C.3     1  UNL1        0.1130
     62 C           6.8671   -7.2722    0.0000 C.3     1  UNL1        0.1119
     63 C           5.1350   -7.2722    0.0000 C.3     1  UNL1        0.0730
     64 C           9.4651   -5.7722    0.0000 C.3     1  UNL1        0.1884
     65 C          10.3312   -5.2722    0.0000 C.3     1  UNL1        0.1341
     66 C          11.1972   -5.7722    0.0000 C.3     1  UNL1        0.1140
     67 C          10.3312   -7.2722    0.0000 C.3     1  UNL1        0.0873
     68 C          11.1972   -6.7722    0.0000 C.3     1  UNL1        0.1095
     69 C          10.3312   -8.2722    0.0000 C.3     1  UNL1       -0.0361
     70 H           7.6385    1.4968    0.0000 H       1  UNL1        0.0315
     71 H           8.5314   -0.0605    0.0000 H       1  UNL1        0.0313
     72 H           9.2921    1.8256    0.0000 H       1  UNL1        0.0271
     73 H           8.8824    2.5107    0.0000 H       1  UNL1        0.0271
     74 H           8.9079    0.3018    0.0000 H       1  UNL1        0.0268
     75 H           9.3017    0.9962    0.0000 H       1  UNL1        0.0268
     76 H           6.1502    4.5242    0.0000 H       1  UNL1        0.0352
     77 H           8.8791    3.3538    0.0000 H       1  UNL1        0.0274
     78 H           9.2836    4.0420    0.0000 H       1  UNL1        0.0274
     79 H           5.4251    2.5266    0.0000 H       1  UNL1        0.0310
     80 H           5.8263    1.8379    0.0000 H       1  UNL1        0.0310
     81 H           5.7398    0.9449    0.0000 H       1  UNL1        0.0271
     82 H           5.3300    0.2598    0.0000 H       1  UNL1        0.0271
     83 H           9.2868    4.8715    0.0000 H       1  UNL1        0.0272
     84 H           8.8876    5.5628    0.0000 H       1  UNL1        0.0272
     85 H           8.8623    1.9952    0.0000 H       1  UNL1        0.0235
     86 H           9.3624    2.7154    0.0000 H       1  UNL1        0.0235
     87 H           8.6422    3.2156    0.0000 H       1  UNL1        0.0235
     88 H           7.4046   -1.5812    0.0000 H       1  UNL1        0.0603
     89 H           5.4941    3.7292    0.0000 H       1  UNL1        0.0572
     90 H           6.3400    1.9221    0.0000 H       1  UNL1        0.0235
     91 H           5.4922    1.6985    0.0000 H       1  UNL1        0.0235
     92 H           5.7158    0.8507    0.0000 H       1  UNL1        0.0235
     93 H           5.3199   -0.6130    0.0000 H       1  UNL1        0.0290
     94 H           5.7137   -1.3074    0.0000 H       1  UNL1        0.0290
     95 H           8.6444    2.6471    0.0000 H       1  UNL1        0.0238
     96 H           9.3607    3.1528    0.0000 H       1  UNL1        0.0238
     97 H           8.8550    3.8691    0.0000 H       1  UNL1        0.0238
     98 H           5.3095    5.5773    0.0000 H       1  UNL1        0.0276
     99 H           5.7246    4.8954    0.0000 H       1  UNL1        0.0276
    100 H           8.3128    6.2712    0.0000 H       1  UNL1        0.0740
    101 H           7.2302    7.5986    0.0000 H       1  UNL1        0.0306
    102 H           6.4319    7.5925    0.0000 H       1  UNL1        0.0306
    103 H           9.3855   -0.5019    0.0000 H       1  UNL1        0.0563
    104 H           8.6922   -0.1087    0.0000 H       1  UNL1        0.0563
    105 H           7.7767   -1.9024    0.0000 H       1  UNL1        0.0237
    106 H           8.6254   -2.1228    0.0000 H       1  UNL1        0.0237
    107 H           8.8458   -1.2741    0.0000 H       1  UNL1        0.0237
    108 H           8.9486    5.4739    0.0000 H       1  UNL1        0.0236
    109 H           9.1657    6.3234    0.0000 H       1  UNL1        0.0236
    110 H           8.3162    6.5406    0.0000 H       1  UNL1        0.0236
    111 H           4.8920    7.1723    0.0000 H       1  UNL1        0.0235
    112 H           4.2816    6.5428    0.0000 H       1  UNL1        0.0235
    113 H           5.9202    7.7442    0.0000 H       1  UNL1        0.0235
    114 H           5.0699    7.9581    0.0000 H       1  UNL1        0.0235
    115 H           4.8560    7.1078    0.0000 H       1  UNL1        0.0235
    116 H           4.9111    5.9325    0.0000 H       1  UNL1        0.0235
    117 H           6.0010   -2.1522    0.0000 H       1  UNL1        0.0938
    118 H           9.9312   -1.5758    0.0000 H       1  UNL1        0.2094
    119 H           6.0010   -4.3922    0.0000 H       1  UNL1        0.0675
    120 H           4.5981   -4.5822    0.0000 H       1  UNL1        0.0648
    121 H           4.2690   -2.1522    0.0000 H       1  UNL1        0.0741
    122 H           3.7320   -3.4622    0.0000 H       1  UNL1        0.0652
    123 H           9.8185    8.0453    0.0000 H       1  UNL1        0.0342
    124 H          10.0454    8.8922    0.0000 H       1  UNL1        0.0342
    125 H           9.1985    9.1192    0.0000 H       1  UNL1        0.0342
    126 H           7.4040   -4.9622    0.0000 H       1  UNL1        0.0938
    127 H           4.5981   -5.5822    0.0000 H       1  UNL1        0.2100
    128 H           3.4030   -4.8922    0.0000 H       1  UNL1        0.2100
    129 H           8.2700   -6.0822    0.0000 H       1  UNL1        0.0675
    130 H           7.7331   -7.3922    0.0000 H       1  UNL1        0.0648
    131 H           5.4641   -6.4622    0.0000 H       1  UNL1        0.0647
    132 H           2.0000   -2.4622    0.0000 H       1  UNL1        0.2951
    133 H           6.3301   -7.5822    0.0000 H       1  UNL1        0.0647
    134 H           4.9230   -6.6896    0.0000 H       1  UNL1        0.0584
    135 H           4.5244   -7.3799    0.0000 H       1  UNL1        0.0584
    136 H           9.4651   -5.1523    0.0000 H       1  UNL1        0.0938
    137 H           8.5991   -7.8922    0.0000 H       1  UNL1        0.2100
    138 H           7.4040   -8.5822    0.0000 H       1  UNL1        0.2100
    139 H          10.8681   -4.9622    0.0000 H       1  UNL1        0.0671
    140 H           4.5981   -8.5822    0.0000 H       1  UNL1        0.2095
    141 H          11.7341   -6.0822    0.0000 H       1  UNL1        0.0648
    142 H           9.7942   -7.5822    0.0000 H       1  UNL1        0.0621
    143 H          11.1972   -7.3922    0.0000 H       1  UNL1        0.0646
    144 H          10.8681   -3.9622    0.0000 H       1  UNL1        0.2101
    145 H           9.7112   -8.2722    0.0000 H       1  UNL1        0.0255
    146 H          10.3312   -8.8922    0.0000 H       1  UNL1        0.0255
    147 H          10.9512   -8.2722    0.0000 H       1  UNL1        0.0255
    148 H          12.6002   -5.5822    0.0000 H       1  UNL1        0.2100
    149 H          12.0632   -7.8922    0.0000 H       1  UNL1        0.2100
@<TRIPOS>BOND
     1    36     1    1
     2    50     1    1
     3    42     2    1
     4     2    52    1
     5     3    45    1
     6     3   118    1
     7     4    50    1
     8     4    54    1
     9    51     5    1
    10    57     5    1
    11     6    52    2
    12    53     7    1
    13     7   127    1
    14    55     8    1
    15     8   128    1
    16     9    57    1
    17     9    61    1
    18    10    58    1
    19    10   132    1
    20    11    58    2
    21    59    12    1
    22    64    12    1
    23    60    13    1
    24    13   137    1
    25    62    14    1
    26    14   138    1
    27    15    64    1
    28    15    67    1
    29    16    63    1
    30    16   140    1
    31    65    17    1
    32    17   144    1
    33    66    18    1
    34    18   148    1
    35    68    19    1
    36    19   149    1
    37    20    21    1
    38    20    23    1
    39    20    25    1
    40    20    35    1
    41    21    22    1
    42    21    32    1
    43    21    70    1
    44    22    24    1
    45    22    33    1
    46    22    38    1
    47    23    26    1
    48    23    31    1
    49    23    40    1
    50    24    27    1
    51    24    28    1
    52    24    71    1
    53    25    28    1
    54    25    72    1
    55    25    73    1
    56    26    29    1
    57    26    37    2
    58    27    36    1
    59    27    45    1
    60    27    46    1
    61    28    74    1
    62    28    75    1
    63    29    30    1
    64    29    41    1
    65    29    76    1
    66    30    34    1
    67    30    42    1
    68    30    47    1
    69    31    34    1
    70    31    77    1
    71    31    78    1
    72    32    37    1
    73    32    79    1
    74    32    80    1
    75    33    39    1
    76    33    81    1
    77    33    82    1
    78    34    83    1
    79    34    84    1
    80    35    85    1
    81    35    86    1
    82    35    87    1
    83    36    39    1
    84    36    88    1
    85    37    89    1
    86    38    90    1
    87    38    91    1
    88    38    92    1
    89    39    93    1
    90    39    94    1
    91    40    95    1
    92    40    96    1
    93    40    97    1
    94    41    43    1
    95    41    98    1
    96    41    99    1
    97    42    44    1
    98    42   100    1
    99    43    44    1
   100    43    48    1
   101    43    49    1
   102    44   101    1
   103    44   102    1
   104    45   103    1
   105    45   104    1
   106    46   105    1
   107    46   106    1
   108    46   107    1
   109    47   108    1
   110    47   109    1
   111    47   110    1
   112    48   113    1
   113    48   114    1
   114    48   115    1
   115    49   111    1
   116    49   112    1
   117    49   116    1
   118    50    51    1
   119    50   117    1
   120    51    53    1
   121    51   119    1
   122    52    56    1
   123    53    55    1
   124    53   120    1
   125    54    55    1
   126    54    58    1
   127    54   121    1
   128    55   122    1
   129    56   123    1
   130    56   124    1
   131    56   125    1
   132    57    59    1
   133    57   126    1
   134    59    60    1
   135    59   129    1
   136    60    62    1
   137    60   130    1
   138    61    62    1
   139    61    63    1
   140    61   131    1
   141    62   133    1
   142    63   134    1
   143    63   135    1
   144    64    65    1
   145    64   136    1
   146    65    66    1
   147    65   139    1
   148    66    68    1
   149    66   141    1
   150    67    68    1
   151    67    69    1
   152    67   142    1
   153    68   143    1
   154    69   145    1
   155    69   146    1
   156    69   147    1
