@<TRIPOS>MOLECULE
IMPHY010636
 81 88 0 0 0
SMALL
GASTEIGER

@<TRIPOS>ATOM
      1 O          14.3154    0.3818    0.0000 O.3     1  UNL1       -0.2232
      2 O           9.7884   -4.1705    0.0000 O.3     1  UNL1       -0.3312
      3 O          16.7490    1.0876    0.0000 O.3     1  UNL1       -0.3334
      4 O           8.9282   -2.6672    0.0000 O.3     1  UNL1       -0.3257
      5 O          18.0382    2.2443    0.0000 O.3     1  UNL1       -0.3257
      6 O           8.0525   -5.1639    0.0000 O.3     1  UNL1       -0.3231
      7 O          18.0847   -0.4010    0.0000 O.3     1  UNL1       -0.2149
      8 O           6.3243   -4.1572    0.0000 O.3     1  UNL1       -0.2175
      9 O          20.0417    0.0114    0.0000 O.3     1  UNL1       -0.2174
     10 O           6.3320   -2.1572    0.0000 O.3     1  UNL1       -0.2176
     11 O          20.6630    1.9124    0.0000 O.3     1  UNL1       -0.2176
     12 O          18.6595    4.1453    0.0000 O.3     1  UNL1       -0.3259
     13 O           6.3205   -5.1572    0.0000 O.3     1  UNL1       -0.3245
     14 O           7.2038   -0.6605    0.0000 O.3     1  UNL1       -0.2176
     15 O           8.0448   -7.1638    0.0000 O.3     1  UNL1       -0.2149
     16 O           6.3089   -8.1572    0.0000 O.3     1  UNL1       -0.2174
     17 O          18.3838    5.9059    0.0000 O.3     1  UNL1       -0.3256
     18 O           4.5807   -7.1505    0.0000 O.3     1  UNL1       -0.2176
     19 O           4.5923   -4.1505    0.0000 O.3     1  UNL1       -0.4453
     20 O          20.7298    4.8141    0.0000 O.3     1  UNL1       -0.2149
     21 O          20.7335    6.9896    0.0000 O.3     1  UNL1       -0.2175
     22 O          17.6878    7.8751    0.0000 O.3     1  UNL1       -0.2176
     23 O           2.8602   -4.1438    0.0000 O.2     1  UNL1       -0.2495
     24 O           2.8718   -1.1439    0.0000 O.co2   1  UNL1       -0.2450
     25 O           2.0000   -2.6405    0.0000 O.co2   1  UNL1       -0.2450
     26 C          14.3154   -2.6182    0.0000 C.3     1  UNL1        0.0002
     27 C          15.1815   -2.1182    0.0000 C.3     1  UNL1        0.0024
     28 C          13.4494   -2.1182    0.0000 C.3     1  UNL1        0.0025
     29 C          12.5394   -2.6250    0.0000 C.3     1  UNL1        0.0002
     30 C          15.1815   -1.1182    0.0000 C.3     1  UNL1        0.0327
     31 C          12.5314   -3.6666    0.0000 C.3     1  UNL1        0.0023
     32 C          14.3315   -3.6597    0.0000 C.3     1  UNL1        0.0000
     33 C          16.1277   -0.8135    0.0000 C.3     1  UNL1        0.0275
     34 C          13.4494   -1.1182    0.0000 C.3     1  UNL1        0.0329
     35 C          14.3154   -0.6182    0.0000 C.3     1  UNL1        0.1520
     36 C          16.1277   -2.4229    0.0000 C.3     1  UNL1        0.0002
     37 C          13.4335   -4.1875    0.0000 C.3     1  UNL1        0.0001
     38 C          11.5960   -4.2164    0.0000 C.3     1  UNL1        0.0251
     39 C          16.7113   -1.6182    0.0000 C.3     1  UNL1        0.0024
     40 C          11.6126   -2.0610    0.0000 C.3     1  UNL1        0.0025
     41 C          14.9582   -3.3842    0.0000 C.3     1  UNL1        0.0000
     42 C          15.5236   -3.0579    0.0000 C.3     1  UNL1        0.0001
     43 C          12.5471   -1.6251    0.0000 C.3     1  UNL1        0.0000
     44 C          10.6563   -3.6739    0.0000 C.3     1  UNL1        0.1177
     45 C          16.4384    0.1370    0.0000 C.3     1  UNL1        0.0957
     46 C          10.6647   -2.5889    0.0000 C.3     1  UNL1        0.0296
     47 C          12.0993   -5.0805    0.0000 C.3     1  UNL1        0.0024
     48 C          11.0993   -5.0843    0.0000 C.3     1  UNL1        0.0024
     49 C          17.3889   -0.1736    0.0000 C.3     1  UNL1        0.0319
     50 C          15.4878    0.4477    0.0000 C.3     1  UNL1        0.0297
     51 C          17.5951   -1.1521    0.0000 C.3     1  UNL1        0.0278
     52 C           8.9243   -3.6672    0.0000 C.3     1  UNL1        0.2661
     53 C          17.7275    1.2938    0.0000 C.3     1  UNL1        0.2693
     54 C           8.0564   -4.1639    0.0000 C.3     1  UNL1        0.2066
     55 C          18.3954    0.5495    0.0000 C.3     1  UNL1        0.2406
     56 C          18.5456   -1.4628    0.0000 C.2     1  UNL1       -0.0345
     57 C           7.1923   -3.6605    0.0000 C.3     1  UNL1        0.2166
     58 C          19.3739    0.7557    0.0000 C.3     1  UNL1        0.2198
     59 C           8.0641   -2.1639    0.0000 C.3     1  UNL1        0.1835
     60 C          19.0167    2.4505    0.0000 C.3     1  UNL1        0.1802
     61 C           7.1961   -2.6605    0.0000 C.3     1  UNL1        0.2143
     62 C          19.6845    1.7062    0.0000 C.3     1  UNL1        0.2143
     63 C          18.7518   -2.4413    0.0000 C.2     1  UNL1       -0.0478
     64 C           8.0679   -1.1639    0.0000 C.3     1  UNL1        0.2142
     65 C          19.3274    3.4010    0.0000 C.3     1  UNL1        0.1770
     66 C           7.1846   -5.6605    0.0000 C.3     1  UNL1        0.2696
     67 C          18.0075   -3.1091    0.0000 C.3     1  UNL1        0.0260
     68 C          19.7024   -2.7519    0.0000 C.3     1  UNL1        0.0260
     69 C           7.1807   -6.6605    0.0000 C.3     1  UNL1        0.2406
     70 C           6.3127   -7.1572    0.0000 C.3     1  UNL1        0.2199
     71 C           5.4525   -5.6538    0.0000 C.3     1  UNL1        0.1942
     72 C           5.4487   -6.6538    0.0000 C.3     1  UNL1        0.2155
     73 C          18.9702    5.0959    0.0000 C.3     1  UNL1        0.2695
     74 C          19.9218    5.4032    0.0000 C.3     1  UNL1        0.2404
     75 C           4.5884   -5.1505    0.0000 C.3     1  UNL1        0.2405
     76 C          19.9235    6.4032    0.0000 C.3     1  UNL1        0.2168
     77 C          18.9730    6.7139    0.0000 C.3     1  UNL1        0.1836
     78 C          18.6656    7.6655    0.0000 C.3     1  UNL1        0.2142
     79 C           3.7282   -3.6472    0.0000 C.2     1  UNL1        0.3287
     80 C           3.7320   -2.6472    0.0000 C.3     1  UNL1        0.2230
     81 C           2.8679   -2.1438    0.0000 C.2     1  UNL1        0.3761
@<TRIPOS>BOND
     1     1    35    1
     2     2    44    1
     3     4    52    1
     4     4    59    1
     5     5    53    1
     6     5    60    1
     7    12    65    1
     8    13    66    1
     9    13    71    1
    10    14    64    1
    11    17    73    1
    12    17    77    1
    13    19    75    1
    14    19    79    1
    15    22    78    1
    16    23    79    2
    17    24    81   ar
    18    25    81   ar
    19    26    27    1
    20    26    28    1
    21    26    32    1
    22    26    41    1
    23    27    30    1
    24    27    36    1
    25    27    42    1
    26    28    29    1
    27    28    34    1
    28    29    31    1
    29    29    40    1
    30    29    43    1
    31    30    33    1
    32    30    35    1
    33    31    37    1
    34    31    38    1
    35    32    37    1
    36    33    39    1
    37    33    45    1
    38    34    35    1
    39    36    39    1
    40    38    44    1
    41    38    47    1
    42    38    48    1
    43    40    46    1
    44    44    46    1
    45    45     3    1
    46    45    49    1
    47    45    50    1
    48    49    51    1
    49    51    56    1
    50    52     2    1
    51    52    54    1
    52    53     3    1
    53    53    55    1
    54    54     6    1
    55    54    57    1
    56    55     7    1
    57    55    58    1
    58    56    63    2
    59    57     8    1
    60    57    61    1
    61    58     9    1
    62    58    62    1
    63    59    61    1
    64    59    64    1
    65    60    62    1
    66    60    65    1
    67    61    10    1
    68    62    11    1
    69    63    67    1
    70    63    68    1
    71    66     6    1
    72    66    69    1
    73    69    15    1
    74    69    70    1
    75    70    16    1
    76    70    72    1
    77    71    72    1
    78    71    75    1
    79    72    18    1
    80    73    12    1
    81    73    74    1
    82    74    20    1
    83    74    76    1
    84    76    21    1
    85    76    77    1
    86    77    78    1
    87    79    80    1
    88    80    81    1
