@<TRIPOS>MOLECULE
IMPHY015701
 105 104 0 0 0
SMALL
GASTEIGER

@<TRIPOS>ATOM
      1 O           9.7942    2.1550    0.0000 O.2     5  LEU5       -0.2738
      2 O          12.3923    4.6550    0.0000 O.2     6  ILE6       -0.2738
      3 OG1         7.1962   -2.3450    0.0000 O.3     3  THR3       -0.3897
      4 O           6.3301   -2.8450    0.0000 O.2     2  ILE2       -0.2738
      5 O           8.9282    1.6550    0.0000 O.2     4  ALA4       -0.2738
      6 O           5.4641    0.6550    0.0000 O.2     3  THR3       -0.2737
      7 O           2.8660   -3.8450    0.0000 O.2     1  GLY1       -0.2744
      8 O          15.8564    3.6550    0.0000 O.3     7  ASN7       -0.4793
      9 OXT        14.9904    2.1550    0.0000 O.2     7  ASN7       -0.2489
     10 OD1        15.8564    4.6550    0.0000 O.2     7  ASN7       -0.2760
     11 N          10.6603    3.6550    0.0000 N.am    6  ILE6       -0.3022
     12 N           8.0622    3.1550    0.0000 N.am    5  LEU5       -0.3025
     13 N           5.4641   -1.3450    0.0000 N.am    3  THR3       -0.3003
     14 N          13.2583    3.1550    0.0000 N.am    7  ASN7       -0.3004
     15 N           4.5981   -3.8450    0.0000 N.am    2  ILE2       -0.3027
     16 N           7.1962    0.6550    0.0000 N.am    4  ALA4       -0.3027
     17 N           2.8660   -5.8450    0.0000 N.3     1  GLY1       -0.3225
     18 ND2        14.9904    6.1550    0.0000 N.am    7  ASN7       -0.3293
     19 CB         11.5263    2.1550    0.0000 C.3     6  ILE6       -0.0171
     20 CA         11.5263    3.1550    0.0000 C.3     6  ILE6        0.1020
     21 CA          8.9282    3.6550    0.0000 C.3     5  LEU5        0.0996
     22 CB          8.9282    4.6550    0.0000 C.3     5  LEU5       -0.0236
     23 CG          8.0622    5.1550    0.0000 C.3     5  LEU5       -0.0446
     24 CG1        10.6603    1.6550    0.0000 C.3     6  ILE6       -0.0512
     25 CB          3.7320   -2.3450    0.0000 C.3     2  ILE2       -0.0171
     26 C           9.7942    3.1550    0.0000 C.2     5  LEU5        0.2340
     27 CA          4.5981   -2.8450    0.0000 C.3     2  ILE2        0.1019
     28 CG2        12.3923    1.6550    0.0000 C.3     6  ILE6       -0.0603
     29 C          12.3923    3.6550    0.0000 C.2     6  ILE6        0.2343
     30 CG1         2.8660   -2.8450    0.0000 C.3     2  ILE2       -0.0512
     31 CA          6.3301   -0.8450    0.0000 C.3     3  THR3        0.1252
     32 C           5.4641   -2.3450    0.0000 C.2     2  ILE2        0.2343
     33 CA          7.1962    1.6550    0.0000 C.3     4  ALA4        0.0966
     34 CD1         8.0622    6.1550    0.0000 C.3     5  LEU5       -0.0626
     35 CD2         7.1962    4.6550    0.0000 C.3     5  LEU5       -0.0626
     36 CD1        10.6603    0.6550    0.0000 C.3     6  ILE6       -0.0650
     37 CG2         3.7320   -1.3450    0.0000 C.3     2  ILE2       -0.0603
     38 C           8.0622    2.1550    0.0000 C.2     4  ALA4        0.2337
     39 CB          7.1962   -1.3450    0.0000 C.3     3  THR3        0.0792
     40 C           6.3301    0.1550    0.0000 C.2     3  THR3        0.2365
     41 CA         14.1244    3.6550    0.0000 C.3     7  ASN7        0.1285
     42 CD1         2.0000   -2.3450    0.0000 C.3     2  ILE2       -0.0650
     43 CB          6.3301    2.1550    0.0000 C.3     4  ALA4       -0.0381
     44 CG2         8.0622   -0.8450    0.0000 C.3     3  THR3       -0.0367
     45 CB         14.1244    4.6550    0.0000 C.3     7  ASN7        0.0525
     46 C           3.7320   -4.3450    0.0000 C.2     1  GLY1        0.2273
     47 C          14.9904    3.1550    0.0000 C.2     7  ASN7        0.3257
     48 CA          3.7320   -5.3450    0.0000 C.3     1  GLY1        0.0707
     49 CG         14.9904    5.1550    0.0000 C.2     7  ASN7        0.2128
     50 HB         12.0632    2.4650    0.0000 H       6  ILE6        0.0321
     51 HA         10.9893    2.8450    0.0000 H       6  ILE6        0.0597
     52 HA          8.9282    3.0350    0.0000 H       5  LEU5        0.0594
     53 HB1         9.5388    4.5473    0.0000 H       5  LEU5        0.0290
     54 HB2         9.1403    5.2376    0.0000 H       5  LEU5        0.0290
     55 HG          8.0622    4.5350    0.0000 H       5  LEU5        0.0296
     56 HG11       10.4482    2.2376    0.0000 H       6  ILE6        0.0266
     57 HG12       10.0497    1.5473    0.0000 H       6  ILE6        0.0266
     58 HB          4.2690   -2.0350    0.0000 H       2  ILE2        0.0321
     59 H          10.6603    4.2750    0.0000 H       6  ILE6        0.1495
     60 HA          5.1350   -3.1550    0.0000 H       2  ILE2        0.0597
     61 HG21       12.0823    1.1181    0.0000 H       6  ILE6        0.0233
     62 HG22       12.9292    1.3450    0.0000 H       6  ILE6        0.0233
     63 HG23       12.7023    2.1919    0.0000 H       6  ILE6        0.0233
     64 H           7.5252    3.4650    0.0000 H       5  LEU5        0.1495
     65 HG11        2.4675   -3.3200    0.0000 H       2  ILE2        0.0266
     66 HG12        3.2646   -3.3200    0.0000 H       2  ILE2        0.0266
     67 HA          5.7932   -0.5350    0.0000 H       3  THR3        0.0621
     68 HA          6.6592    1.3450    0.0000 H       4  ALA4        0.0592
     69 HD11        8.6822    6.1550    0.0000 H       5  LEU5        0.0232
     70 HD12        8.0622    6.7750    0.0000 H       5  LEU5        0.0232
     71 HD13        7.4422    6.1550    0.0000 H       5  LEU5        0.0232
     72 HD21        6.8862    5.1919    0.0000 H       5  LEU5        0.0232
     73 HD22        6.6592    4.3450    0.0000 H       5  LEU5        0.0232
     74 HD23        7.5062    4.1181    0.0000 H       5  LEU5        0.0232
     75 HD11       10.0403    0.6550    0.0000 H       6  ILE6        0.0230
     76 HD12       10.6603    0.0350    0.0000 H       6  ILE6        0.0230
     77 HD13       11.2803    0.6550    0.0000 H       6  ILE6        0.0230
     78 HG21        4.3520   -1.3450    0.0000 H       2  ILE2        0.0233
     79 HG22        3.7320   -0.7250    0.0000 H       2  ILE2        0.0233
     80 HG23        3.1120   -1.3450    0.0000 H       2  ILE2        0.0233
     81 H           4.9272   -1.0350    0.0000 H       3  THR3        0.1496
     82 HB          6.6592   -1.6550    0.0000 H       3  THR3        0.0614
     83 H          13.2583    2.5350    0.0000 H       7  ASN7        0.1496
     84 H           5.1350   -4.1550    0.0000 H       2  ILE2        0.1495
     85 H           7.7331    0.3450    0.0000 H       4  ALA4        0.1495
     86 HA         13.5874    3.9650    0.0000 H       7  ASN7        0.0619
     87 HD11        2.3100   -1.8081    0.0000 H       2  ILE2        0.0230
     88 HD12        1.4631   -2.0350    0.0000 H       2  ILE2        0.0230
     89 HD13        1.6900   -2.8819    0.0000 H       2  ILE2        0.0230
     90 HB1         6.6401    2.6919    0.0000 H       4  ALA4        0.0252
     91 HB2         5.7932    2.4650    0.0000 H       4  ALA4        0.0252
     92 HB3         6.0201    1.6181    0.0000 H       4  ALA4        0.0252
     93 HG21        8.3722   -1.3819    0.0000 H       3  THR3        0.0255
     94 HG22        8.5991   -0.5350    0.0000 H       3  THR3        0.0255
     95 HG23        7.7522   -0.3081    0.0000 H       3  THR3        0.0255
     96 HB1        13.9123    5.2376    0.0000 H       7  ASN7        0.0382
     97 HB2        13.5138    4.5473    0.0000 H       7  ASN7        0.0382
     98 HG1         7.7331   -2.6550    0.0000 H       3  THR3        0.2099
     99 HA1         3.9441   -5.9276    0.0000 H       1  GLY1        0.0518
    100 HA2         4.3426   -5.2373    0.0000 H       1  GLY1        0.0518
    101 H1          2.8660   -6.4650    0.0000 H       1  GLY1        0.1186
    102 H2          2.3291   -5.5350    0.0000 H       1  GLY1        0.1186
    103 H          16.3933    3.3450    0.0000 H       7  ASN7        0.2951
    104 HD21       15.5273    6.4650    0.0000 H       7  ASN7        0.1449
    105 HD22       14.4534    6.4650    0.0000 H       7  ASN7        0.1449
@<TRIPOS>BOND
     1     1    26    2
     2     2    29    2
     3    39     3    1
     4     3    98    1
     5     4    32    2
     6     5    38    2
     7     6    40    2
     8     7    46    2
     9     8    47    1
    10     8   103    1
    11     9    47    2
    12    10    49    2
    13    20    11    1
    14    11    26   am
    15    11    59    1
    16    21    12    1
    17    12    38   am
    18    12    64    1
    19    31    13    1
    20    13    32   am
    21    13    81    1
    22    14    29   am
    23    41    14    1
    24    14    83    1
    25    27    15    1
    26    15    46   am
    27    15    84    1
    28    33    16    1
    29    16    40   am
    30    16    85    1
    31    17    48    1
    32    17   101    1
    33    17   102    1
    34    18    49   am
    35    18   104    1
    36    18   105    1
    37    19    20    1
    38    19    24    1
    39    19    28    1
    40    19    50    1
    41    20    29    1
    42    20    51    1
    43    21    22    1
    44    21    26    1
    45    21    52    1
    46    22    23    1
    47    22    53    1
    48    22    54    1
    49    23    34    1
    50    23    35    1
    51    23    55    1
    52    24    36    1
    53    24    56    1
    54    24    57    1
    55    25    27    1
    56    25    30    1
    57    25    37    1
    58    25    58    1
    59    27    32    1
    60    27    60    1
    61    28    61    1
    62    28    62    1
    63    28    63    1
    64    30    42    1
    65    30    65    1
    66    30    66    1
    67    31    39    1
    68    31    40    1
    69    31    67    1
    70    33    38    1
    71    33    43    1
    72    33    68    1
    73    34    69    1
    74    34    70    1
    75    34    71    1
    76    35    72    1
    77    35    73    1
    78    35    74    1
    79    36    75    1
    80    36    76    1
    81    36    77    1
    82    37    78    1
    83    37    79    1
    84    37    80    1
    85    39    44    1
    86    39    82    1
    87    41    45    1
    88    41    47    1
    89    41    86    1
    90    42    87    1
    91    42    88    1
    92    42    89    1
    93    43    90    1
    94    43    91    1
    95    43    92    1
    96    44    93    1
    97    44    94    1
    98    44    95    1
    99    45    49    1
   100    45    96    1
   101    45    97    1
   102    46    48    1
   103    48    99    1
   104    48   100    1
