@<TRIPOS>MOLECULE
IMPHY007382
 55 57 0 0 0
SMALL
GASTEIGER

@<TRIPOS>ATOM
      1 O           4.0387    0.0088    0.0000 O.2     1  UNL1       -0.5096
      2 O           7.1421    0.1233    0.0000 O.2     1  UNL1       -0.2897
      3 O           4.0935   -1.6368    0.0000 O.2     1  UNL1       -0.2699
      4 O           7.6989   -2.9992    0.0000 O.3     1  UNL1       -0.3927
      5 N           5.8148   -2.0980    0.0000 N.am    1  UNL1       -0.2990
      6 C           6.3444    1.7168    0.0000 C.3     1  UNL1       -0.0217
      7 C           5.4784    1.2168    0.0000 C.3     1  UNL1        0.0389
      8 C           6.3444    2.7168    0.0000 C.3     1  UNL1       -0.0189
      9 C           7.2384    1.1821    0.0000 C.3     1  UNL1       -0.0485
     10 C           7.2384    3.2514    0.0000 C.3     1  UNL1       -0.0439
     11 C           4.6124    1.7168    0.0000 C.3     1  UNL1        0.0077
     12 C           8.1445    2.7376    0.0000 C.3     1  UNL1       -0.0433
     13 C           8.1445    1.6959    0.0000 C.3     1  UNL1       -0.0501
     14 C           5.4784    3.2168    0.0000 C.2     1  UNL1       -0.0840
     15 C           5.9784    0.3507    0.0000 C.3     1  UNL1       -0.0516
     16 C           4.9784    0.3507    0.0000 C.2     1  UNL1        0.1166
     17 C           4.6124    2.7168    0.0000 C.2     1  UNL1       -0.0799
     18 C           9.0085    3.2409    0.0000 C.3     1  UNL1       -0.0624
     19 C           3.6276    1.5431    0.0000 C.2     1  UNL1       -0.0804
     20 C           5.4784   -0.5153    0.0000 C.2     1  UNL1        0.1186
     21 C           6.4729   -0.6198    0.0000 C.2     1  UNL1        0.1936
     22 C           2.9848    2.3092    0.0000 C.2     1  UNL1       -0.0904
     23 C           5.0717   -1.4288    0.0000 C.2     1  UNL1        0.2514
     24 CA          6.6808   -1.5980    0.0000 C.3     1  UNL1        0.1096
     25 C           2.0000    2.1356    0.0000 C.3     1  UNL1       -0.0468
     26 C           7.5944   -2.0047    0.0000 C.3     1  UNL1        0.0698
     27 H           6.3379    0.8668    0.0000 H       1  UNL1        0.0316
     28 H           6.3379    3.5667    0.0000 H       1  UNL1        0.0346
     29 H           6.8338    0.7123    0.0000 H       1  UNL1        0.0268
     30 H           7.6320    0.7031    0.0000 H       1  UNL1        0.0268
     31 H           7.6320    3.7304    0.0000 H       1  UNL1        0.0274
     32 H           6.8338    3.7212    0.0000 H       1  UNL1        0.0274
     33 H           4.5047    1.1062    0.0000 H       1  UNL1        0.0395
     34 H           8.6820    2.4286    0.0000 H       1  UNL1        0.0298
     35 H           8.3535    1.1122    0.0000 H       1  UNL1        0.0268
     36 H           8.7553    1.8020    0.0000 H       1  UNL1        0.0268
     37 H           5.4784    3.8368    0.0000 H       1  UNL1        0.0572
     38 H           5.4415    0.0407    0.0000 H       1  UNL1        0.0240
     39 H           6.2884   -0.1862    0.0000 H       1  UNL1        0.0240
     40 H           6.5154    0.6607    0.0000 H       1  UNL1        0.0240
     41 H           4.0754    3.0268    0.0000 H       1  UNL1        0.0575
     42 H           9.3206    2.7052    0.0000 H       1  UNL1        0.0232
     43 H           9.5443    3.5530    0.0000 H       1  UNL1        0.0232
     44 H           8.6965    3.7766    0.0000 H       1  UNL1        0.0232
     45 H           3.4155    0.9605    0.0000 H       1  UNL1        0.0575
     46 H           3.9310   -0.6018    0.0000 H       1  UNL1        0.2917
     47 H           3.1968    2.8918    0.0000 H       1  UNL1        0.0566
     48 HA          6.7133   -2.2171    0.0000 H       1  UNL1        0.0604
     49 H           5.7500   -2.7146    0.0000 H       1  UNL1        0.1498
     50 H           1.8923    2.7462    0.0000 H       1  UNL1        0.0272
     51 H           1.3894    2.0279    0.0000 H       1  UNL1        0.0272
     52 H           2.1077    1.5250    0.0000 H       1  UNL1        0.0272
     53 H1          8.2129   -2.0480    0.0000 H       1  UNL1        0.0580
     54 H2          7.7444   -1.4031    0.0000 H       1  UNL1        0.0580
     55 H           8.2653   -3.2514    0.0000 H       1  UNL1        0.2095
@<TRIPOS>BOND
     1     1    16    1
     2     1    46    1
     3     2    21    2
     4     3    23    2
     5     4    26    1
     6     4    55    1
     7     5    23   am
     8     5    24    1
     9     5    49    1
    10     6     7    1
    11     6     8    1
    12     6     9    1
    13     6    27    1
    14     7    11    1
    15     7    15    1
    16     7    16    1
    17     8    10    1
    18     8    14    1
    19     8    28    1
    20     9    13    1
    21     9    29    1
    22     9    30    1
    23    10    12    1
    24    10    31    1
    25    10    32    1
    26    11    17    1
    27    11    19    1
    28    11    33    1
    29    12    13    1
    30    12    18    1
    31    12    34    1
    32    13    35    1
    33    13    36    1
    34    14    17    2
    35    14    37    1
    36    15    38    1
    37    15    39    1
    38    15    40    1
    39    16    20    2
    40    17    41    1
    41    18    42    1
    42    18    43    1
    43    18    44    1
    44    19    22    2
    45    19    45    1
    46    20    21    1
    47    20    23    1
    48    21    24    1
    49    22    25    1
    50    22    47    1
    51    24    26    1
    52    24    48    1
    53    25    50    1
    54    25    51    1
    55    25    52    1
    56    26    53    1
    57    26    54    1
