@<TRIPOS>MOLECULE
IMPHY007558
 49 51 0 0 0
SMALL
GASTEIGER

@<TRIPOS>ATOM
      1 O           3.3660   -3.4726    0.0000 O.2     1  UNL1       -0.4704
      2 C           4.5981    1.0662    0.0000 C.3     1  UNL1       -0.0188
      3 C           4.5981    2.0662    0.0000 C.3     1  UNL1       -0.0294
      4 C           5.4920    2.6009    0.0000 C.3     1  UNL1       -0.0315
      5 C           5.4920    0.5316    0.0000 C.3     1  UNL1       -0.0465
      6 C           3.7320    0.5662    0.0000 C.3     1  UNL1        0.0039
      7 C           3.7320    2.5662    0.0000 C.3     1  UNL1       -0.0455
      8 C           6.3981    2.0870    0.0000 C.3     1  UNL1       -0.0476
      9 C           6.3981    1.0454    0.0000 C.3     1  UNL1       -0.0520
     10 C           4.5981    0.0662    0.0000 C.3     1  UNL1       -0.0585
     11 C           2.8660    2.0662    0.0000 C.3     1  UNL1       -0.0311
     12 C           2.8660    1.0662    0.0000 C.2     1  UNL1       -0.0693
     13 C           5.9820    3.4726    0.0000 C.3     1  UNL1       -0.0595
     14 C           4.9820    3.4611    0.0000 C.3     1  UNL1       -0.0595
     15 C           3.7320   -0.4338    0.0000 C.2     1  UNL1       -0.0757
     16 C           2.0000    0.5662    0.0000 C.2     1  UNL1       -0.0989
     17 C           2.8660   -0.9338    0.0000 C.2     1  UNL1       -0.0549
     18 C           2.8660   -1.9338    0.0000 C.ar    1  UNL1        0.0124
     19 C           2.0570   -2.5216    0.0000 C.ar    1  UNL1       -0.0168
     20 C           3.6750   -2.5216    0.0000 C.ar    1  UNL1        0.0988
     21 C           2.3660   -3.4726    0.0000 C.ar    1  UNL1        0.0923
     22 H           4.5915    2.9162    0.0000 H       1  UNL1        0.0312
     23 H           5.0874    0.0618    0.0000 H       1  UNL1        0.0271
     24 H           5.8856    0.0525    0.0000 H       1  UNL1        0.0271
     25 H           3.1951    0.2562    0.0000 H       1  UNL1        0.0393
     26 H           4.1306    3.0412    0.0000 H       1  UNL1        0.0271
     27 H           3.3335    3.0412    0.0000 H       1  UNL1        0.0271
     28 H           7.0089    1.9809    0.0000 H       1  UNL1        0.0271
     29 H           6.6071    2.6707    0.0000 H       1  UNL1        0.0271
     30 H           6.6071    0.4617    0.0000 H       1  UNL1        0.0266
     31 H           7.0089    1.1515    0.0000 H       1  UNL1        0.0266
     32 H           3.9781    0.0662    0.0000 H       1  UNL1        0.0235
     33 H           4.5981   -0.5538    0.0000 H       1  UNL1        0.0235
     34 H           5.2181    0.0662    0.0000 H       1  UNL1        0.0235
     35 H           2.6540    2.6488    0.0000 H       1  UNL1        0.0310
     36 H           2.2554    1.9586    0.0000 H       1  UNL1        0.0310
     37 H           6.5225    3.1689    0.0000 H       1  UNL1        0.0235
     38 H           6.2857    4.0131    0.0000 H       1  UNL1        0.0235
     39 H           5.4415    3.7764    0.0000 H       1  UNL1        0.0235
     40 H           5.5154    3.7772    0.0000 H       1  UNL1        0.0235
     41 H           4.6658    3.9944    0.0000 H       1  UNL1        0.0235
     42 H           4.4487    3.1449    0.0000 H       1  UNL1        0.0235
     43 H           4.2690   -0.7438    0.0000 H       1  UNL1        0.0578
     44 H           1.4631    0.8762    0.0000 H       1  UNL1        0.0535
     45 H           2.0000   -0.0538    0.0000 H       1  UNL1        0.0535
     46 H           2.3291   -0.6238    0.0000 H       1  UNL1        0.0621
     47 H           1.4674   -2.3300    0.0000 H       1  UNL1        0.0655
     48 H           4.2647   -2.3300    0.0000 H       1  UNL1        0.1035
     49 H           2.0016   -3.9742    0.0000 H       1  UNL1        0.1029
@<TRIPOS>BOND
     1     1    20   ar
     2     1    21   ar
     3     2     3    1
     4     2     5    1
     5     2     6    1
     6     2    10    1
     7     3     4    1
     8     3     7    1
     9     3    22    1
    10     4     8    1
    11     4    13    1
    12     4    14    1
    13     5     9    1
    14     5    23    1
    15     5    24    1
    16     6    12    1
    17     6    15    1
    18     6    25    1
    19     7    11    1
    20     7    26    1
    21     7    27    1
    22     8     9    1
    23     8    28    1
    24     8    29    1
    25     9    30    1
    26     9    31    1
    27    10    32    1
    28    10    33    1
    29    10    34    1
    30    11    12    1
    31    11    35    1
    32    11    36    1
    33    12    16    2
    34    13    37    1
    35    13    38    1
    36    13    39    1
    37    14    40    1
    38    14    41    1
    39    14    42    1
    40    15    17    2
    41    15    43    1
    42    16    44    1
    43    16    45    1
    44    17    18    1
    45    17    46    1
    46    18    19   ar
    47    18    20   ar
    48    19    21   ar
    49    19    47    1
    50    20    48    1
    51    21    49    1
