@<TRIPOS>MOLECULE
IMPHY010623
 9 8 0 0 0
SMALL
GASTEIGER

@<TRIPOS>ATOM
      1 C           0.0000   -0.5619    0.0000 C.3     1  UNL1        0.0000
      2 C           0.9672    0.0000    0.0000 C.3     1  UNL1        0.0009
      3 C           2.1832   -0.7001    0.0000 C.3     1  UNL1        0.0125
      4 C           3.3900    0.0000    0.0000 C.3     1  UNL1        0.0690
      5 S           4.6060   -0.7001    0.0000 S.3     1  UNL1       -0.0777
      6 S           5.8219    0.0000    0.0000 S.3     1  UNL1       -0.0550
      7 C           7.0287   -0.7001    0.0000 C.2     1  UNL1        0.0373
      8 C           8.2447    0.0000    0.0000 C.2     1  UNL1       -0.0183
      9 C           9.2119   -0.5619    0.0000 C.3     1  UNL1        0.0313
@<TRIPOS>BOND
     1     1     2    1
     2     2     3    1
     3     3     4    1
     4     4     5    1
     5     5     6    1
     6     6     7    1
     7     7     8    2
     8     8     9    1
