@<TRIPOS>MOLECULE
IMPHY002280
 78 82 0 0 0
SMALL
GASTEIGER

@<TRIPOS>ATOM
      1 O           6.1847   -2.8666    0.0000 O.2     1  UNL1       -0.2971
      2 O           2.5357   -1.8496    0.0000 O.3     1  UNL1       -0.3912
      3 C           7.0628   -0.2973    0.0000 C.3     1  UNL1       -0.0130
      4 C           6.1968    0.2027    0.0000 C.3     1  UNL1       -0.0284
      5 C           5.2868   -0.3042    0.0000 C.3     1  UNL1       -0.0186
      6 C           7.9288    0.2027    0.0000 C.3     1  UNL1       -0.0041
      7 C           7.9288    1.2027    0.0000 C.3     1  UNL1       -0.0223
      8 C           5.2787   -1.3458    0.0000 C.3     1  UNL1        0.0306
      9 C           6.1968    1.2027    0.0000 C.3     1  UNL1       -0.0489
     10 C           8.8228    1.7374    0.0000 C.3     1  UNL1       -0.0032
     11 C           7.0789   -1.3388    0.0000 C.3     1  UNL1        0.0126
     12 C           7.0628    1.7027    0.0000 C.3     1  UNL1       -0.0483
     13 C           4.3433   -1.8955    0.0000 C.3     1  UNL1        0.0011
     14 C           4.3599    0.2599    0.0000 C.3     1  UNL1       -0.0443
     15 C           6.1808   -1.8666    0.0000 C.2     1  UNL1        0.1381
     16 C           7.7056   -1.0634    0.0000 C.3     1  UNL1       -0.0581
     17 C           8.8228   -0.3320    0.0000 C.2     1  UNL1       -0.0770
     18 C           5.2945    0.6958    0.0000 C.3     1  UNL1       -0.0586
     19 C           8.2709   -0.7370    0.0000 C.3     1  UNL1       -0.0553
     20 C           3.4037   -1.3530    0.0000 C.3     1  UNL1        0.0610
     21 C           3.4120   -0.2680    0.0000 C.3     1  UNL1       -0.0258
     22 C           9.7288    1.2235    0.0000 C.2     1  UNL1       -0.0419
     23 C           9.0329    2.7513    0.0000 C.3     1  UNL1       -0.0396
     24 C           9.7288    0.1819    0.0000 C.2     1  UNL1       -0.0615
     25 C           7.9529    2.2307    0.0000 C.3     1  UNL1       -0.0552
     26 C          10.0619    2.8666    0.0000 C.3     1  UNL1       -0.0301
     27 C          10.4911    1.9243    0.0000 C.2     1  UNL1       -0.0632
     28 C           3.8467   -2.7634    0.0000 C.3     1  UNL1       -0.0568
     29 C           4.8466   -2.7596    0.0000 C.3     1  UNL1       -0.0568
     30 C          11.4712    1.7256    0.0000 C.3     1  UNL1       -0.0250
     31 C          12.1333    2.4750    0.0000 C.3     1  UNL1       -0.0589
     32 C          11.7892    0.7775    0.0000 C.3     1  UNL1       -0.0589
     33 H           6.9329    0.6277    0.0000 H       1  UNL1        0.0312
     34 H           8.6682    0.7834    0.0000 H       1  UNL1        0.0318
     35 H           5.2820   -2.1958    0.0000 H       1  UNL1        0.0389
     36 H           5.9847    1.7853    0.0000 H       1  UNL1        0.0268
     37 H           5.5862    1.0950    0.0000 H       1  UNL1        0.0268
     38 H           7.2969   -1.9192    0.0000 H       1  UNL1        0.0347
     39 H           7.6880   -1.2233    0.0000 H       1  UNL1        0.0347
     40 H           7.4613    2.1776    0.0000 H       1  UNL1        0.0269
     41 H           6.6643    2.1776    0.0000 H       1  UNL1        0.0269
     42 H           4.7681    0.7266    0.0000 H       1  UNL1        0.0272
     43 H           3.9700    0.7420    0.0000 H       1  UNL1        0.0272
     44 H           7.2306   -1.4619    0.0000 H       1  UNL1        0.0236
     45 H           8.1041   -1.5383    0.0000 H       1  UNL1        0.0236
     46 H           8.1805   -0.6648    0.0000 H       1  UNL1        0.0236
     47 H           8.8156   -0.9519    0.0000 H       1  UNL1        0.0578
     48 H           5.9145    0.6910    0.0000 H       1  UNL1        0.0235
     49 H           5.2993    1.3158    0.0000 H       1  UNL1        0.0235
     50 H           4.6745    0.7006    0.0000 H       1  UNL1        0.0235
     51 H           7.6884   -0.9491    0.0000 H       1  UNL1        0.0238
     52 H           8.4830   -1.3196    0.0000 H       1  UNL1        0.0238
     53 H           8.8535   -0.5249    0.0000 H       1  UNL1        0.0238
     54 H           3.4025   -1.9730    0.0000 H       1  UNL1        0.0599
     55 H           3.2075    0.3173    0.0000 H       1  UNL1        0.0290
     56 H           2.8004   -0.3694    0.0000 H       1  UNL1        0.0290
     57 H           9.0290    3.3713    0.0000 H       1  UNL1        0.0277
     58 H           8.4159    2.8126    0.0000 H       1  UNL1        0.0277
     59 H          10.2646   -0.1302    0.0000 H       1  UNL1        0.0618
     60 H           8.2588    2.7700    0.0000 H       1  UNL1        0.0238
     61 H           7.4136    2.5365    0.0000 H       1  UNL1        0.0238
     62 H           7.6471    1.6914    0.0000 H       1  UNL1        0.0238
     63 H          10.6500    3.0629    0.0000 H       1  UNL1        0.0311
     64 H           9.9285    3.4720    0.0000 H       1  UNL1        0.0311
     65 H           4.3109   -3.0716    0.0000 H       1  UNL1        0.0236
     66 H           3.3085   -2.4555    0.0000 H       1  UNL1        0.0236
     67 H           3.5387   -3.3016    0.0000 H       1  UNL1        0.0236
     68 H           5.1587   -3.2953    0.0000 H       1  UNL1        0.0236
     69 H           5.3824   -2.4475    0.0000 H       1  UNL1        0.0236
     70 H           4.3848   -3.0713    0.0000 H       1  UNL1        0.0236
     71 H          11.2741    2.3134    0.0000 H       1  UNL1        0.0340
     72 H           2.0000   -1.5376    0.0000 H       1  UNL1        0.2098
     73 H          11.2014    0.5803    0.0000 H       1  UNL1        0.0235
     74 H          11.9863    0.1897    0.0000 H       1  UNL1        0.0235
     75 H          12.5979    2.0645    0.0000 H       1  UNL1        0.0235
     76 H          12.5438    2.9397    0.0000 H       1  UNL1        0.0235
     77 H          12.3770    0.9746    0.0000 H       1  UNL1        0.0235
     78 H          11.6687    2.8855    0.0000 H       1  UNL1        0.0235
@<TRIPOS>BOND
     1     1    15    2
     2    20     2    1
     3     2    72    1
     4     3     4    1
     5     3     6    1
     6     3    11    1
     7     3    16    1
     8     4     5    1
     9     4     9    1
    10     4    33    1
    11     5     8    1
    12     5    14    1
    13     5    18    1
    14     6     7    1
    15     6    17    1
    16     6    19    1
    17     7    10    1
    18     7    12    1
    19     7    34    1
    20     8    13    1
    21     8    15    1
    22     8    35    1
    23     9    12    1
    24     9    36    1
    25     9    37    1
    26    10    22    1
    27    10    23    1
    28    10    25    1
    29    11    15    1
    30    11    38    1
    31    11    39    1
    32    12    40    1
    33    12    41    1
    34    13    20    1
    35    13    28    1
    36    13    29    1
    37    14    21    1
    38    14    42    1
    39    14    43    1
    40    16    44    1
    41    16    45    1
    42    16    46    1
    43    17    24    2
    44    17    47    1
    45    18    48    1
    46    18    49    1
    47    18    50    1
    48    19    51    1
    49    19    52    1
    50    19    53    1
    51    20    21    1
    52    20    54    1
    53    21    55    1
    54    21    56    1
    55    22    24    1
    56    22    27    2
    57    23    26    1
    58    23    57    1
    59    23    58    1
    60    24    59    1
    61    25    60    1
    62    25    61    1
    63    25    62    1
    64    26    27    1
    65    26    63    1
    66    26    64    1
    67    27    30    1
    68    28    66    1
    69    28    67    1
    70    28    70    1
    71    29    65    1
    72    29    68    1
    73    29    69    1
    74    30    31    1
    75    30    32    1
    76    30    71    1
    77    31    75    1
    78    31    76    1
    79    31    78    1
    80    32    73    1
    81    32    74    1
    82    32    77    1
