@<TRIPOS>MOLECULE
IMPHY001738
 53 56 0 0 0
SMALL
GASTEIGER

@<TRIPOS>ATOM
      1 O           5.2022    1.0204    0.0000 O.3     1  UNL1       -0.3649
      2 O           7.8003    0.5204    0.0000 O.3     1  UNL1       -0.3865
      3 O           7.8003    2.5204    0.0000 O.3     1  UNL1       -0.3865
      4 O           6.0682    3.5204    0.0000 O.3     1  UNL1       -0.3865
      5 O           4.3362    3.5204    0.0000 O.3     1  UNL1       -0.3924
      6 O           6.0682   -3.4796    0.0000 O.2     1  UNL1       -0.2864
      7 O           7.8167   -3.5142    0.0000 O.3     1  UNL1       -0.5060
      8 O           4.3198   -3.5142    0.0000 O.3     1  UNL1       -0.5028
      9 O           2.5381   -2.5038    0.0000 O.3     1  UNL1       -0.5033
     10 O          10.4663   -0.9521    0.0000 O.3     1  UNL1       -0.3904
     11 C           6.0682    0.5204    0.0000 C.3     1  UNL1        0.0983
     12 C           6.0682   -0.4796    0.0000 C.3     1  UNL1        0.0395
     13 C           6.9343    1.0204    0.0000 C.3     1  UNL1        0.1104
     14 C           6.9343    2.0204    0.0000 C.3     1  UNL1        0.1118
     15 C           6.0682    2.5204    0.0000 C.3     1  UNL1        0.1117
     16 C           5.2022    2.0204    0.0000 C.3     1  UNL1        0.1104
     17 C           6.9343   -0.9796    0.0000 C.ar    1  UNL1       -0.0227
     18 C           5.2022   -0.9796    0.0000 C.ar    1  UNL1       -0.0228
     19 C           6.9343   -1.9796    0.0000 C.ar    1  UNL1        0.0676
     20 C           5.2022   -1.9796    0.0000 C.ar    1  UNL1        0.0712
     21 C           4.3362    2.5204    0.0000 C.3     1  UNL1        0.0729
     22 C           6.0682   -2.4796    0.0000 C.2     1  UNL1        0.2008
     23 C           7.8282   -0.4449    0.0000 C.ar    1  UNL1       -0.0516
     24 C           4.3083   -0.4449    0.0000 C.ar    1  UNL1       -0.0535
     25 C           7.8282   -2.5143    0.0000 C.ar    1  UNL1        0.1283
     26 C           4.3083   -2.5143    0.0000 C.ar    1  UNL1        0.1695
     27 C           8.7343   -0.9588    0.0000 C.ar    1  UNL1       -0.0184
     28 C           8.7343   -2.0004    0.0000 C.ar    1  UNL1       -0.0141
     29 C           3.4022   -0.9588    0.0000 C.ar    1  UNL1       -0.0162
     30 C           3.4022   -2.0004    0.0000 C.ar    1  UNL1        0.1590
     31 C           9.5984   -0.4555    0.0000 C.3     1  UNL1        0.0694
     32 H           5.3321    0.0954    0.0000 H       1  UNL1        0.0632
     33 H           6.8044   -0.0546    0.0000 H       1  UNL1        0.0424
     34 H           6.9343    0.4004    0.0000 H       1  UNL1        0.0646
     35 H           6.9343    2.6404    0.0000 H       1  UNL1        0.0647
     36 H           5.5313    2.8304    0.0000 H       1  UNL1        0.0647
     37 H           4.6653    1.7104    0.0000 H       1  UNL1        0.0646
     38 H           3.7256    2.6280    0.0000 H       1  UNL1        0.0584
     39 H           4.1242    1.9378    0.0000 H       1  UNL1        0.0584
     40 H           7.8210    0.1750    0.0000 H       1  UNL1        0.0624
     41 H           8.3372    0.8304    0.0000 H       1  UNL1        0.2100
     42 H           4.3154    0.1750    0.0000 H       1  UNL1        0.0622
     43 H           7.8003    3.1404    0.0000 H       1  UNL1        0.2100
     44 H           6.6052    3.8304    0.0000 H       1  UNL1        0.2100
     45 H           9.2700   -2.3125    0.0000 H       1  UNL1        0.0658
     46 H           2.8665   -0.6467    0.0000 H       1  UNL1        0.0655
     47 H           3.7993    3.8304    0.0000 H       1  UNL1        0.2095
     48 H           9.9951    0.0210    0.0000 H       1  UNL1        0.0607
     49 H           9.1980    0.0179    0.0000 H       1  UNL1        0.0607
     50 H           8.3500   -3.8304    0.0000 H       1  UNL1        0.2922
     51 H           3.7865   -3.8304    0.0000 H       1  UNL1        0.2923
     52 H           2.0000   -2.1958    0.0000 H       1  UNL1        0.2923
     53 H          11.0021   -0.6400    0.0000 H       1  UNL1        0.2098
@<TRIPOS>BOND
     1     1    11    1
     2     1    16    1
     3    13     2    1
     4     2    41    1
     5    14     3    1
     6     3    43    1
     7    15     4    1
     8     4    44    1
     9     5    21    1
    10     5    47    1
    11     6    22    2
    12     7    25    1
    13     7    50    1
    14     8    26    1
    15     8    51    1
    16     9    30    1
    17     9    52    1
    18    10    31    1
    19    10    53    1
    20    11    12    1
    21    11    13    1
    22    11    32    1
    23    12    17    1
    24    12    18    1
    25    12    33    1
    26    13    14    1
    27    13    34    1
    28    14    15    1
    29    14    35    1
    30    15    16    1
    31    15    36    1
    32    16    21    1
    33    16    37    1
    34    17    19   ar
    35    17    23   ar
    36    18    20   ar
    37    18    24   ar
    38    19    22    1
    39    19    25   ar
    40    20    22    1
    41    20    26   ar
    42    21    38    1
    43    21    39    1
    44    23    27   ar
    45    23    40    1
    46    24    29   ar
    47    24    42    1
    48    25    28   ar
    49    26    30   ar
    50    27    28   ar
    51    27    31    1
    52    28    45    1
    53    29    30   ar
    54    29    46    1
    55    31    48    1
    56    31    49    1
