@<TRIPOS>MOLECULE
IMPHY009880
 27 27 0 0 0
SMALL
GASTEIGER

@<TRIPOS>ATOM
      1 O           3.0000    2.3450    0.0000 O.3     1  UNL1       -0.3885
      2 C           3.0000    0.3450    0.0000 C.3     1  UNL1        0.0092
      3 C           3.0000    1.3450    0.0000 C.3     1  UNL1        0.0670
      4 C           2.1340   -0.1550    0.0000 C.3     1  UNL1       -0.0253
      5 C           3.8660   -0.1550    0.0000 C.2     1  UNL1       -0.0777
      6 C           4.0000    1.3450    0.0000 C.3     1  UNL1       -0.0358
      7 C           2.0000    1.3450    0.0000 C.3     1  UNL1       -0.0358
      8 C           2.1340   -1.1550    0.0000 C.2     1  UNL1       -0.0805
      9 C           3.0000   -1.6550    0.0000 C.2     1  UNL1       -0.0546
     10 C           3.8660   -1.1550    0.0000 C.2     1  UNL1       -0.0627
     11 C           3.0000   -2.6550    0.0000 C.3     1  UNL1       -0.0400
     12 H           3.5369    0.6550    0.0000 H       1  UNL1        0.0374
     13 H           1.9219    0.4276    0.0000 H       1  UNL1        0.0314
     14 H           1.5234   -0.2627    0.0000 H       1  UNL1        0.0314
     15 H           4.4030    0.1550    0.0000 H       1  UNL1        0.0576
     16 H           4.0000    0.7250    0.0000 H       1  UNL1        0.0257
     17 H           4.6200    1.3450    0.0000 H       1  UNL1        0.0257
     18 H           4.0000    1.9650    0.0000 H       1  UNL1        0.0257
     19 H           2.0000    1.9650    0.0000 H       1  UNL1        0.0257
     20 H           1.3800    1.3450    0.0000 H       1  UNL1        0.0257
     21 H           2.0000    0.7250    0.0000 H       1  UNL1        0.0257
     22 H           1.5970   -1.4650    0.0000 H       1  UNL1        0.0575
     23 H           4.4030   -1.4650    0.0000 H       1  UNL1        0.0617
     24 H           3.5369    2.6550    0.0000 H       1  UNL1        0.2102
     25 H           2.3800   -2.6550    0.0000 H       1  UNL1        0.0277
     26 H           3.0000   -3.2750    0.0000 H       1  UNL1        0.0277
     27 H           3.6200   -2.6550    0.0000 H       1  UNL1        0.0277
@<TRIPOS>BOND
     1     1     3    1
     2     1    24    1
     3     2     3    1
     4     2     4    1
     5     2     5    1
     6     2    12    1
     7     3     6    1
     8     3     7    1
     9     4     8    1
    10     4    13    1
    11     4    14    1
    12     5    10    2
    13     5    15    1
    14     6    16    1
    15     6    17    1
    16     6    18    1
    17     7    19    1
    18     7    20    1
    19     7    21    1
    20     8     9    2
    21     8    22    1
    22     9    10    1
    23     9    11    1
    24    10    23    1
    25    11    25    1
    26    11    26    1
    27    11    27    1
