@<TRIPOS>MOLECULE
IMPHY014086
 27 26 0 0 0
SMALL
GASTEIGER

@<TRIPOS>ATOM
      1 O           5.4641    0.2500    0.0000 O.3     1  UNL1       -0.4614
      2 O           6.3301   -1.2500    0.0000 O.2     1  UNL1       -0.2453
      3 C           3.7320    0.2500    0.0000 C.3     1  UNL1       -0.0188
      4 C           2.8660   -0.2500    0.0000 C.3     1  UNL1       -0.0528
      5 C           4.5981   -0.2500    0.0000 C.3     1  UNL1        0.0928
      6 C           2.0000    0.2500    0.0000 C.3     1  UNL1       -0.0652
      7 C           7.1962    0.2500    0.0000 C.2     1  UNL1        0.0293
      8 C           6.3301   -0.2500    0.0000 C.2     1  UNL1        0.3346
      9 C           7.1962    1.2500    0.0000 C.3     1  UNL1       -0.0333
     10 C           8.0622   -0.2500    0.0000 C.2     1  UNL1       -0.0774
     11 C           8.0622   -1.2500    0.0000 C.3     1  UNL1       -0.0461
     12 H           4.1306    0.7249    0.0000 H       1  UNL1        0.0298
     13 H           3.3335    0.7249    0.0000 H       1  UNL1        0.0298
     14 H           2.4675   -0.7249    0.0000 H       1  UNL1        0.0264
     15 H           3.2646   -0.7249    0.0000 H       1  UNL1        0.0264
     16 H           4.1996   -0.7249    0.0000 H       1  UNL1        0.0697
     17 H           4.9966   -0.7249    0.0000 H       1  UNL1        0.0697
     18 H           2.3100    0.7869    0.0000 H       1  UNL1        0.0230
     19 H           1.4631    0.5600    0.0000 H       1  UNL1        0.0230
     20 H           1.6900   -0.2869    0.0000 H       1  UNL1        0.0230
     21 H           7.8162    1.2500    0.0000 H       1  UNL1        0.0280
     22 H           7.1962    1.8700    0.0000 H       1  UNL1        0.0280
     23 H           6.5762    1.2500    0.0000 H       1  UNL1        0.0280
     24 H           8.5991    0.0600    0.0000 H       1  UNL1        0.0574
     25 H           7.4422   -1.2500    0.0000 H       1  UNL1        0.0272
     26 H           8.0622   -1.8700    0.0000 H       1  UNL1        0.0272
     27 H           8.6822   -1.2500    0.0000 H       1  UNL1        0.0272
@<TRIPOS>BOND
     1     1     5    1
     2     1     8    1
     3     2     8    2
     4     3     4    1
     5     3     5    1
     6     3    12    1
     7     3    13    1
     8     4     6    1
     9     4    14    1
    10     4    15    1
    11     5    16    1
    12     5    17    1
    13     6    18    1
    14     6    19    1
    15     6    20    1
    16     7     8    1
    17     7     9    1
    18     7    10    2
    19     9    21    1
    20     9    22    1
    21     9    23    1
    22    10    11    1
    23    10    24    1
    24    11    25    1
    25    11    26    1
    26    11    27    1
