@<TRIPOS>MOLECULE
IMPHY015375
 20 19 0 0 0
SMALL
GASTEIGER

@<TRIPOS>ATOM
      1 O           2.5369    0.5000    0.0000 O.3     1  UNL1       -0.3843
      2 O           4.2690    1.5000    0.0000 O.2     1  UNL1       -0.2947
      3 C           3.4030    0.0000    0.0000 C.3     1  UNL1        0.1127
      4 C           3.4030   -1.0000    0.0000 C.3     1  UNL1       -0.0228
      5 C           4.2690    0.5000    0.0000 C.2     1  UNL1        0.1613
      6 C           5.1350    0.0000    0.0000 C.3     1  UNL1        0.0056
      7 C           2.5369   -1.5000    0.0000 C.3     1  UNL1       -0.0625
      8 C           6.0010    0.5000    0.0000 C.3     1  UNL1       -0.0585
      9 H           3.4030    0.6200    0.0000 H       1  UNL1        0.0672
     10 H           3.6150   -1.5826    0.0000 H       1  UNL1        0.0292
     11 H           4.0135   -0.8923    0.0000 H       1  UNL1        0.0292
     12 H           4.7365   -0.4749    0.0000 H       1  UNL1        0.0340
     13 H           5.5335   -0.4749    0.0000 H       1  UNL1        0.0340
     14 H           2.2269   -0.9631    0.0000 H       1  UNL1        0.0231
     15 H           2.0000   -1.8100    0.0000 H       1  UNL1        0.0231
     16 H           2.8469   -2.0369    0.0000 H       1  UNL1        0.0231
     17 H           6.3110   -0.0369    0.0000 H       1  UNL1        0.0234
     18 H           6.5380    0.8100    0.0000 H       1  UNL1        0.0234
     19 H           5.6910    1.0369    0.0000 H       1  UNL1        0.0234
     20 H           2.0000    0.1900    0.0000 H       1  UNL1        0.2104
@<TRIPOS>BOND
     1     1     3    1
     2     1    20    1
     3     2     5    2
     4     3     4    1
     5     3     5    1
     6     3     9    1
     7     4     7    1
     8     4    10    1
     9     4    11    1
    10     5     6    1
    11     6     8    1
    12     6    12    1
    13     6    13    1
    14     7    14    1
    15     7    15    1
    16     7    16    1
    17     8    17    1
    18     8    18    1
    19     8    19    1
