@<TRIPOS>MOLECULE
IMPHY017563
 18 18 0 0 0
SMALL
GASTEIGER

@<TRIPOS>ATOM
      1 O           4.7770   -0.9688    0.0000 O.2     1  UNL1       -0.2908
      2 N           2.8090   -0.2694    0.0000 N.ar    1  UNL1       -0.3475
      3 C           3.6180    0.3184    0.0000 C.ar    1  UNL1        0.0843
      4 C           3.3090    1.2694    0.0000 C.ar    1  UNL1       -0.0334
      5 C           2.0000    0.3184    0.0000 C.ar    1  UNL1        0.0049
      6 C           2.3090    1.2694    0.0000 C.ar    1  UNL1       -0.0435
      7 C           2.8090   -1.2694    0.0000 C.3     1  UNL1        0.0120
      8 C           4.5691    0.0093    0.0000 C.2     1  UNL1        0.1763
      9 C           5.3122    0.6785    0.0000 C.3     1  UNL1        0.0001
     10 H           3.6734    1.7710    0.0000 H       1  UNL1        0.0640
     11 H           1.4103    0.1268    0.0000 H       1  UNL1        0.0809
     12 H           1.9446    1.7710    0.0000 H       1  UNL1        0.0633
     13 H           2.1890   -1.2694    0.0000 H       1  UNL1        0.0456
     14 H           2.8090   -1.8894    0.0000 H       1  UNL1        0.0456
     15 H           3.4290   -1.2694    0.0000 H       1  UNL1        0.0456
     16 H           5.7271    0.2177    0.0000 H       1  UNL1        0.0310
     17 H           5.7730    1.0933    0.0000 H       1  UNL1        0.0310
     18 H           4.8974    1.1392    0.0000 H       1  UNL1        0.0310
@<TRIPOS>BOND
     1     1     8    2
     2     2     3   ar
     3     2     5   ar
     4     2     7    1
     5     3     4   ar
     6     3     8    1
     7     4     6   ar
     8     4    10    1
     9     5     6   ar
    10     5    11    1
    11     6    12    1
    12     7    13    1
    13     7    14    1
    14     7    15    1
    15     8     9    1
    16     9    16    1
    17     9    17    1
    18     9    18    1
