@<TRIPOS>MOLECULE
IMPHY000413
 211 222 0 0 0
SMALL
GASTEIGER

@<TRIPOS>ATOM
      1 O          18.1254   -6.5000    0.0000 O.3     1  UNL1       -0.3366
      2 O          18.9914   -4.0000    0.0000 O.3     1  UNL1       -0.3301
      3 O          16.3933   -6.5000    0.0000 O.3     1  UNL1       -0.3394
      4 O          19.8574   -5.5000    0.0000 O.3     1  UNL1       -0.4514
      5 O          16.3933   -5.5000    0.0000 O.3     1  UNL1       -0.3863
      6 O          16.3933   -3.5000    0.0000 O.3     1  UNL1       -0.3864
      7 O          18.1254   -8.5000    0.0000 O.3     1  UNL1       -0.3841
      8 O          16.3933   -9.5000    0.0000 O.3     1  UNL1       -0.3864
      9 O          14.6613   -8.5000    0.0000 O.3     1  UNL1       -0.3864
     10 O          17.2594   -2.0000    0.0000 O.3     1  UNL1       -0.4589
     11 O          13.7953   -7.0000    0.0000 O.3     1  UNL1       -0.4589
     12 O          19.8184   -0.4787    0.0000 O.3     1  UNL1       -0.3313
     13 O          22.4555   -5.0000    0.0000 O.2     1  UNL1       -0.1997
     14 O          20.7017   -1.9685    0.0000 O.3     1  UNL1       -0.4598
     15 O          12.0632    4.0000    0.0000 O.3     1  UNL1       -0.3302
     16 O           6.8671   -5.0000    0.0000 O.3     1  UNL1       -0.3313
     17 O          22.3989    1.0513    0.0000 O.3     1  UNL1       -0.3864
     18 O          22.4221   -0.9486    0.0000 O.3     1  UNL1       -0.3829
     19 O          20.6554    2.0312    0.0000 O.3     1  UNL1       -0.3865
     20 O           5.1350    7.0000    0.0000 O.3     1  UNL1       -0.3313
     21 O          12.9292    2.5000    0.0000 O.3     1  UNL1       -0.4608
     22 O          12.9292    6.5000    0.0000 O.3     1  UNL1       -0.3864
     23 O          14.6613    5.5000    0.0000 O.3     1  UNL1       -0.3864
     24 O          14.6613    3.5000    0.0000 O.3     1  UNL1       -0.3829
     25 O          18.1254   -0.5000    0.0000 O.2     1  UNL1       -0.2456
     26 O           7.7331   -6.5000    0.0000 O.3     1  UNL1       -0.4572
     27 O           9.4651   -3.5000    0.0000 O.3     1  UNL1       -0.3864
     28 O           7.7331   -2.5000    0.0000 O.3     1  UNL1       -0.3865
     29 O          12.9292   -5.5000    0.0000 O.2     1  UNL1       -0.2456
     30 O           4.2690    9.5000    0.0000 O.3     1  UNL1       -0.3865
     31 O           2.5369    8.5000    0.0000 O.3     1  UNL1       -0.3864
     32 O           9.4651   -5.5000    0.0000 O.3     1  UNL1       -0.3829
     33 O           4.2690    5.5000    0.0000 O.3     1  UNL1       -0.4572
     34 O          18.9235    2.0112    0.0000 O.3     1  UNL1       -0.3924
     35 O           2.5369    6.5000    0.0000 O.3     1  UNL1       -0.3829
     36 O          10.3312    5.0000    0.0000 O.3     1  UNL1       -0.4589
     37 O          24.2415   -1.9549    0.0000 O.3     1  UNL1       -0.5063
     38 O           5.1350   -4.0000    0.0000 O.3     1  UNL1       -0.3924
     39 O           6.0010    9.5000    0.0000 O.3     1  UNL1       -0.3924
     40 O          23.3215   -8.5000    0.0000 O.3     1  UNL1       -0.5033
     41 O          21.5895   -9.5000    0.0000 O.3     1  UNL1       -0.5033
     42 O           7.7331   -8.5000    0.0000 O.3     1  UNL1       -0.5033
     43 O           4.2690    3.5000    0.0000 O.3     1  UNL1       -0.5033
     44 O           9.4651    6.5000    0.0000 O.2     1  UNL1       -0.2456
     45 C          18.1254   -5.5000    0.0000 C.3     1  UNL1        0.1519
     46 C          17.2594   -5.0000    0.0000 C.3     1  UNL1        0.1156
     47 C          17.2594   -4.0000    0.0000 C.3     1  UNL1        0.1130
     48 C          17.2594   -7.0000    0.0000 C.3     1  UNL1        0.1886
     49 C          17.2594   -8.0000    0.0000 C.3     1  UNL1        0.1341
     50 C          18.9914   -5.0000    0.0000 C.3     1  UNL1        0.2316
     51 C          18.1254   -3.5000    0.0000 C.3     1  UNL1        0.1250
     52 C          16.3933   -8.5000    0.0000 C.3     1  UNL1        0.1141
     53 C          15.5273   -8.0000    0.0000 C.3     1  UNL1        0.1129
     54 C          15.5273   -7.0000    0.0000 C.3     1  UNL1        0.1240
     55 C          18.1254   -2.5000    0.0000 C.3     1  UNL1        0.1215
     56 C          14.6613   -6.5000    0.0000 C.3     1  UNL1        0.1215
     57 C          20.7235   -5.0000    0.0000 C.ar    1  UNL1        0.2288
     58 C          21.5895   -5.5000    0.0000 C.ar    1  UNL1        0.4046
     59 C          20.7235   -4.0000    0.0000 C.ar    1  UNL1        0.0093
     60 C          21.5387    0.5413    0.0000 C.3     1  UNL1        0.1152
     61 C          21.5503   -0.4586    0.0000 C.3     1  UNL1        0.1454
     62 C          20.6670    1.0313    0.0000 C.3     1  UNL1        0.1120
     63 C          20.6901   -0.9686    0.0000 C.3     1  UNL1        0.2308
     64 C          19.8068    0.5213    0.0000 C.3     1  UNL1        0.1140
     65 C          21.5895   -3.5000    0.0000 C.ar    1  UNL1        0.1245
     66 C          17.2594   -1.0000    0.0000 C.2     1  UNL1        0.3320
     67 C          12.9292   -6.5000    0.0000 C.2     1  UNL1        0.3320
     68 C          22.4555   -4.0000    0.0000 C.ar    1  UNL1        0.3708
     69 C          12.9292    5.5000    0.0000 C.3     1  UNL1        0.1130
     70 C          21.5734   -2.4585    0.0000 C.ar    1  UNL1        0.1437
     71 C          13.7953    5.0000    0.0000 C.3     1  UNL1        0.1152
     72 C          12.0632    5.0000    0.0000 C.3     1  UNL1        0.1250
     73 C          13.7953    4.0000    0.0000 C.3     1  UNL1        0.1454
     74 C          21.5895   -6.5000    0.0000 C.ar    1  UNL1        0.0865
     75 C           8.5991   -4.0000    0.0000 C.3     1  UNL1        0.1152
     76 C           7.7331   -3.5000    0.0000 C.3     1  UNL1        0.1120
     77 C           4.2690    8.5000    0.0000 C.3     1  UNL1        0.1120
     78 C           3.4030    8.0000    0.0000 C.3     1  UNL1        0.1152
     79 C          12.9292    3.5000    0.0000 C.3     1  UNL1        0.2308
     80 C           8.5991   -5.0000    0.0000 C.3     1  UNL1        0.1454
     81 C           6.8671   -4.0000    0.0000 C.3     1  UNL1        0.1140
     82 C          18.9351    1.0112    0.0000 C.3     1  UNL1        0.0731
     83 C           5.1350    8.0000    0.0000 C.3     1  UNL1        0.1140
     84 C           3.4030    7.0000    0.0000 C.3     1  UNL1        0.1454
     85 C           7.7331   -5.5000    0.0000 C.3     1  UNL1        0.2310
     86 C           4.2690    6.5000    0.0000 C.3     1  UNL1        0.2310
     87 C          23.3655   -3.4932    0.0000 C.ar    1  UNL1        0.0847
     88 C          22.4715   -1.9307    0.0000 C.ar    1  UNL1        0.0229
     89 C          11.1972    5.5000    0.0000 C.3     1  UNL1        0.1215
     90 C          16.3933   -0.5000    0.0000 C.2     1  UNL1        0.0231
     91 C          12.0632   -7.0000    0.0000 C.2     1  UNL1        0.0231
     92 C          23.3736   -2.4516    0.0000 C.ar    1  UNL1        0.1293
     93 C           6.0010   -3.5000    0.0000 C.3     1  UNL1        0.0731
     94 C          22.4555   -7.0000    0.0000 C.ar    1  UNL1       -0.0003
     95 C          20.7235   -7.0000    0.0000 C.ar    1  UNL1       -0.0418
     96 C           6.0010    8.5000    0.0000 C.3     1  UNL1        0.0731
     97 C          16.3933    0.5000    0.0000 C.2     1  UNL1       -0.0478
     98 C          11.1972   -6.5000    0.0000 C.2     1  UNL1       -0.0477
     99 C          22.4555   -8.0000    0.0000 C.ar    1  UNL1        0.1591
    100 C          20.7235   -8.0000    0.0000 C.ar    1  UNL1       -0.0157
    101 C          13.7953    2.0000    0.0000 C.ar    1  UNL1        0.1240
    102 C           8.5991   -7.0000    0.0000 C.ar    1  UNL1        0.1657
    103 C          15.5273    1.0000    0.0000 C.ar    1  UNL1       -0.0246
    104 C          10.3312   -7.0000    0.0000 C.ar    1  UNL1       -0.0211
    105 C          21.5895   -8.5000    0.0000 C.ar    1  UNL1        0.1583
    106 C           9.4651   -6.5000    0.0000 C.ar    1  UNL1       -0.0090
    107 C           5.1350    5.0000    0.0000 C.ar    1  UNL1        0.1657
    108 C          13.7953    1.0000    0.0000 C.ar    1  UNL1       -0.0193
    109 C          14.6613    2.5000    0.0000 C.ar    1  UNL1       -0.0193
    110 C          14.6613    0.5000    0.0000 C.ar    1  UNL1       -0.0511
    111 C          15.5273    2.0000    0.0000 C.ar    1  UNL1       -0.0511
    112 C           8.5991   -8.0000    0.0000 C.ar    1  UNL1        0.1586
    113 C          10.3312   -8.0000    0.0000 C.ar    1  UNL1       -0.0509
    114 C           9.4651    5.5000    0.0000 C.2     1  UNL1        0.3320
    115 C           9.4651   -8.5000    0.0000 C.ar    1  UNL1       -0.0160
    116 C           6.0010    5.5000    0.0000 C.ar    1  UNL1       -0.0090
    117 C           5.1350    4.0000    0.0000 C.ar    1  UNL1        0.1586
    118 C           6.8671    5.0000    0.0000 C.ar    1  UNL1       -0.0211
    119 C           8.5991    5.0000    0.0000 C.2     1  UNL1        0.0231
    120 C           6.0010    3.5000    0.0000 C.ar    1  UNL1       -0.0160
    121 C           7.7331    5.5000    0.0000 C.2     1  UNL1       -0.0477
    122 C           6.8671    4.0000    0.0000 C.ar    1  UNL1       -0.0509
    123 H          18.6623   -5.8100    0.0000 H       1  UNL1        0.0687
    124 H          16.7224   -4.6900    0.0000 H       1  UNL1        0.0648
    125 H          17.2594   -3.3800    0.0000 H       1  UNL1        0.0647
    126 H          17.7963   -7.3100    0.0000 H       1  UNL1        0.0938
    127 H          17.2594   -8.6200    0.0000 H       1  UNL1        0.0671
    128 H          19.5284   -4.6900    0.0000 H       1  UNL1        0.1084
    129 H          18.6623   -3.1900    0.0000 H       1  UNL1        0.0658
    130 H          15.8564   -8.8100    0.0000 H       1  UNL1        0.0648
    131 H          14.9904   -7.6900    0.0000 H       1  UNL1        0.0647
    132 H          15.5273   -6.3800    0.0000 H       1  UNL1        0.0658
    133 H          18.7360   -2.6077    0.0000 H       1  UNL1        0.0725
    134 H          18.3374   -1.9174    0.0000 H       1  UNL1        0.0725
    135 H          15.0598   -6.0250    0.0000 H       1  UNL1        0.0725
    136 H          14.2628   -6.0250    0.0000 H       1  UNL1        0.0725
    137 H          15.8564   -5.1900    0.0000 H       1  UNL1        0.2100
    138 H          16.3933   -2.8800    0.0000 H       1  UNL1        0.2100
    139 H          18.1254   -9.1200    0.0000 H       1  UNL1        0.2101
    140 H          15.8564   -9.8100    0.0000 H       1  UNL1        0.2100
    141 H          14.6613   -9.1200    0.0000 H       1  UNL1        0.2100
    142 H          20.1865   -3.6900    0.0000 H       1  UNL1        0.0667
    143 H          22.0792    0.2375    0.0000 H       1  UNL1        0.0648
    144 H          21.5575   -1.0786    0.0000 H       1  UNL1        0.0683
    145 H          20.1265    1.3350    0.0000 H       1  UNL1        0.0647
    146 H          20.1568   -1.2848    0.0000 H       1  UNL1        0.1084
    147 H          19.2735    0.2051    0.0000 H       1  UNL1        0.0647
    148 H          12.3923    5.8100    0.0000 H       1  UNL1        0.0647
    149 H          14.3322    4.6900    0.0000 H       1  UNL1        0.0648
    150 H          11.5263    4.6900    0.0000 H       1  UNL1        0.0658
    151 H          13.7953    3.3800    0.0000 H       1  UNL1        0.0683
    152 H           8.5991   -3.3800    0.0000 H       1  UNL1        0.0648
    153 H           7.1962   -3.1900    0.0000 H       1  UNL1        0.0647
    154 H           4.8059    8.8100    0.0000 H       1  UNL1        0.0647
    155 H           3.4030    8.6200    0.0000 H       1  UNL1        0.0648
    156 H          12.3923    3.1900    0.0000 H       1  UNL1        0.1084
    157 H           8.5991   -5.6200    0.0000 H       1  UNL1        0.0683
    158 H           6.3301   -4.3100    0.0000 H       1  UNL1        0.0647
    159 H          18.3233    1.1118    0.0000 H       1  UNL1        0.0584
    160 H          18.7298    0.4262    0.0000 H       1  UNL1        0.0584
    161 H           5.6720    7.6900    0.0000 H       1  UNL1        0.0647
    162 H           3.4030    6.3800    0.0000 H       1  UNL1        0.0683
    163 H           7.1962   -5.8100    0.0000 H       1  UNL1        0.1084
    164 H           4.8059    6.1900    0.0000 H       1  UNL1        0.1084
    165 H          23.8988   -3.8093    0.0000 H       1  UNL1        0.0749
    166 H          22.4691   -1.3107    0.0000 H       1  UNL1        0.0691
    167 H          11.5957    5.9750    0.0000 H       1  UNL1        0.0725
    168 H          10.7987    5.9750    0.0000 H       1  UNL1        0.0725
    169 H          15.8564   -0.8100    0.0000 H       1  UNL1        0.0689
    170 H          22.3918    1.6712    0.0000 H       1  UNL1        0.2100
    171 H          22.9554   -0.6324    0.0000 H       1  UNL1        0.2102
    172 H          21.1887    2.3474    0.0000 H       1  UNL1        0.2100
    173 H          12.0632   -7.6200    0.0000 H       1  UNL1        0.0689
    174 H           6.3996   -3.0250    0.0000 H       1  UNL1        0.0584
    175 H           5.6025   -3.0250    0.0000 H       1  UNL1        0.0584
    176 H           6.2131    7.9174    0.0000 H       1  UNL1        0.0584
    177 H           6.6116    8.6077    0.0000 H       1  UNL1        0.0584
    178 H          22.9925   -6.6900    0.0000 H       1  UNL1        0.0664
    179 H          20.1865   -6.6900    0.0000 H       1  UNL1        0.0628
    180 H          12.3923    6.8100    0.0000 H       1  UNL1        0.2100
    181 H          14.6613    6.1200    0.0000 H       1  UNL1        0.2100
    182 H          15.1982    3.8100    0.0000 H       1  UNL1        0.2102
    183 H           9.4651   -2.8800    0.0000 H       1  UNL1        0.2100
    184 H           7.1962   -2.1900    0.0000 H       1  UNL1        0.2100
    185 H          16.9303    0.8100    0.0000 H       1  UNL1        0.0626
    186 H           3.7320    9.8100    0.0000 H       1  UNL1        0.2100
    187 H           2.5369    9.1200    0.0000 H       1  UNL1        0.2100
    188 H          10.0021   -5.1900    0.0000 H       1  UNL1        0.2102
    189 H          11.1972   -5.8800    0.0000 H       1  UNL1        0.0626
    190 H          18.3830    2.3149    0.0000 H       1  UNL1        0.2095
    191 H           2.0000    6.8100    0.0000 H       1  UNL1        0.2102
    192 H          20.1865   -8.3100    0.0000 H       1  UNL1        0.0655
    193 H           9.4651   -5.8800    0.0000 H       1  UNL1        0.0661
    194 H          24.7772   -2.2670    0.0000 H       1  UNL1        0.2921
    195 H           4.5981   -3.6900    0.0000 H       1  UNL1        0.2095
    196 H          13.2583    0.6900    0.0000 H       1  UNL1        0.0654
    197 H          14.6613    3.1200    0.0000 H       1  UNL1        0.0654
    198 H           6.5380    9.8100    0.0000 H       1  UNL1        0.2095
    199 H          14.6613   -0.1200    0.0000 H       1  UNL1        0.0625
    200 H          16.0643    2.3100    0.0000 H       1  UNL1        0.0625
    201 H          10.8681   -8.3100    0.0000 H       1  UNL1        0.0625
    202 H           9.4651   -9.1200    0.0000 H       1  UNL1        0.0655
    203 H           6.0010    6.1200    0.0000 H       1  UNL1        0.0661
    204 H          23.8585   -8.1900    0.0000 H       1  UNL1        0.2923
    205 H          21.0526   -9.8100    0.0000 H       1  UNL1        0.2923
    206 H           8.5991    4.3800    0.0000 H       1  UNL1        0.0689
    207 H           6.0010    2.8800    0.0000 H       1  UNL1        0.0655
    208 H           7.7331    6.1200    0.0000 H       1  UNL1        0.0626
    209 H           7.4040    3.6900    0.0000 H       1  UNL1        0.0625
    210 H           7.7331   -9.1200    0.0000 H       1  UNL1        0.2923
    211 H           4.2690    2.8800    0.0000 H       1  UNL1        0.2923
@<TRIPOS>UNITY_ATOM_ATTR
13 1
charge 1
@<TRIPOS>BOND
     1    45     1    1
     2    48     1    1
     3     2    50    1
     4     2    51    1
     5     3    48    1
     6     3    54    1
     7    50     4    1
     8     4    57    1
     9    46     5    1
    10     5   137    1
    11    47     6    1
    12     6   138    1
    13    49     7    1
    14     7   139    1
    15    52     8    1
    16     8   140    1
    17    53     9    1
    18     9   141    1
    19    10    55    1
    20    10    66    1
    21    11    56    1
    22    11    67    1
    23    12    63    1
    24    12    64    1
    25    13    58   ar
    26    13    68   ar
    27    63    14    1
    28    14    70    1
    29    15    72    1
    30    15    79    1
    31    16    81    1
    32    16    85    1
    33    60    17    1
    34    17   170    1
    35    61    18    1
    36    18   171    1
    37    62    19    1
    38    19   172    1
    39    20    83    1
    40    20    86    1
    41    79    21    1
    42    21   101    1
    43    69    22    1
    44    22   180    1
    45    71    23    1
    46    23   181    1
    47    73    24    1
    48    24   182    1
    49    25    66    2
    50    85    26    1
    51    26   102    1
    52    75    27    1
    53    27   183    1
    54    76    28    1
    55    28   184    1
    56    29    67    2
    57    77    30    1
    58    30   186    1
    59    78    31    1
    60    31   187    1
    61    80    32    1
    62    32   188    1
    63    86    33    1
    64    33   107    1
    65    34    82    1
    66    34   190    1
    67    84    35    1
    68    35   191    1
    69    36    89    1
    70    36   114    1
    71    37    92    1
    72    37   194    1
    73    38    93    1
    74    38   195    1
    75    39    96    1
    76    39   198    1
    77    40    99    1
    78    40   204    1
    79    41   105    1
    80    41   205    1
    81    42   112    1
    82    42   210    1
    83    43   117    1
    84    43   211    1
    85    44   114    2
    86    45    46    1
    87    45    50    1
    88    45   123    1
    89    46    47    1
    90    46   124    1
    91    47    51    1
    92    47   125    1
    93    48    49    1
    94    48   126    1
    95    49    52    1
    96    49   127    1
    97    50   128    1
    98    51    55    1
    99    51   129    1
   100    52    53    1
   101    52   130    1
   102    53    54    1
   103    53   131    1
   104    54    56    1
   105    54   132    1
   106    55   133    1
   107    55   134    1
   108    56   135    1
   109    56   136    1
   110    57    58   ar
   111    57    59   ar
   112    58    74    1
   113    59    65   ar
   114    59   142    1
   115    60    61    1
   116    60    62    1
   117    60   143    1
   118    61    63    1
   119    61   144    1
   120    62    64    1
   121    62   145    1
   122    63   146    1
   123    64    82    1
   124    64   147    1
   125    65    68   ar
   126    65    70   ar
   127    66    90    1
   128    67    91    1
   129    68    87   ar
   130    69    71    1
   131    69    72    1
   132    69   148    1
   133    70    88   ar
   134    71    73    1
   135    71   149    1
   136    72    89    1
   137    72   150    1
   138    73    79    1
   139    73   151    1
   140    74    94   ar
   141    74    95   ar
   142    75    76    1
   143    75    80    1
   144    75   152    1
   145    76    81    1
   146    76   153    1
   147    77    78    1
   148    77    83    1
   149    77   154    1
   150    78    84    1
   151    78   155    1
   152    79   156    1
   153    80    85    1
   154    80   157    1
   155    81    93    1
   156    81   158    1
   157    82   159    1
   158    82   160    1
   159    83    96    1
   160    83   161    1
   161    84    86    1
   162    84   162    1
   163    85   163    1
   164    86   164    1
   165    87    92   ar
   166    87   165    1
   167    88    92   ar
   168    88   166    1
   169    89   167    1
   170    89   168    1
   171    90    97    2
   172    90   169    1
   173    91    98    2
   174    91   173    1
   175    93   174    1
   176    93   175    1
   177    94    99   ar
   178    94   178    1
   179    95   100   ar
   180    95   179    1
   181    96   176    1
   182    96   177    1
   183    97   103    1
   184    97   185    1
   185    98   104    1
   186    98   189    1
   187    99   105   ar
   188   100   105   ar
   189   100   192    1
   190   101   108   ar
   191   101   109   ar
   192   102   106   ar
   193   102   112   ar
   194   103   110   ar
   195   103   111   ar
   196   104   106   ar
   197   104   113   ar
   198   106   193    1
   199   107   116   ar
   200   107   117   ar
   201   108   110   ar
   202   108   196    1
   203   109   111   ar
   204   109   197    1
   205   110   199    1
   206   111   200    1
   207   112   115   ar
   208   113   115   ar
   209   113   201    1
   210   114   119    1
   211   115   202    1
   212   116   118   ar
   213   116   203    1
   214   117   120   ar
   215   118   121    1
   216   118   122   ar
   217   119   121    2
   218   119   206    1
   219   120   122   ar
   220   120   207    1
   221   121   208    1
   222   122   209    1
