@<TRIPOS>MOLECULE
IMPHY003520
 24 25 0 0 0
SMALL
GASTEIGER

@<TRIPOS>ATOM
      1 O           2.0000    1.0000    0.0000 O.2     1  UNL1       -0.2867
      2 C           2.8660   -0.5000    0.0000 C.ar    1  UNL1        0.0223
      3 C           3.7320    1.0000    0.0000 C.ar    1  UNL1        0.0223
      4 C           2.8660    0.5000    0.0000 C.2     1  UNL1        0.1931
      5 C           2.0000   -1.0000    0.0000 C.ar    1  UNL1       -0.0509
      6 C           4.5981    0.5000    0.0000 C.ar    1  UNL1       -0.0509
      7 C           3.7320   -1.0000    0.0000 C.ar    1  UNL1       -0.0509
      8 C           3.7320    2.0000    0.0000 C.ar    1  UNL1       -0.0509
      9 C           2.0000   -2.0000    0.0000 C.ar    1  UNL1       -0.0611
     10 C           5.4641    1.0000    0.0000 C.ar    1  UNL1       -0.0611
     11 C           3.7320   -2.0000    0.0000 C.ar    1  UNL1       -0.0611
     12 C           4.5981    2.5000    0.0000 C.ar    1  UNL1       -0.0611
     13 C           2.8660   -2.5000    0.0000 C.ar    1  UNL1       -0.0617
     14 C           5.4641    2.0000    0.0000 C.ar    1  UNL1       -0.0617
     15 H           1.4631   -0.6900    0.0000 H       1  UNL1        0.0625
     16 H           4.5981   -0.1200    0.0000 H       1  UNL1        0.0625
     17 H           4.2690   -0.6900    0.0000 H       1  UNL1        0.0625
     18 H           3.1951    2.3100    0.0000 H       1  UNL1        0.0625
     19 H           1.4631   -2.3100    0.0000 H       1  UNL1        0.0618
     20 H           6.0010    0.6900    0.0000 H       1  UNL1        0.0618
     21 H           4.2690   -2.3100    0.0000 H       1  UNL1        0.0618
     22 H           4.5981    3.1200    0.0000 H       1  UNL1        0.0618
     23 H           2.8660   -3.1200    0.0000 H       1  UNL1        0.0618
     24 H           6.0010    2.3100    0.0000 H       1  UNL1        0.0618
@<TRIPOS>BOND
     1     1     4    2
     2     2     4    1
     3     2     5   ar
     4     2     7   ar
     5     3     4    1
     6     3     6   ar
     7     3     8   ar
     8     5     9   ar
     9     5    15    1
    10     6    10   ar
    11     6    16    1
    12     7    11   ar
    13     7    17    1
    14     8    12   ar
    15     8    18    1
    16     9    13   ar
    17     9    19    1
    18    10    14   ar
    19    10    20    1
    20    11    13   ar
    21    11    21    1
    22    12    14   ar
    23    12    22    1
    24    13    23    1
    25    14    24    1
