@<TRIPOS>MOLECULE
IMPHY006470
 18 19 0 0 0
SMALL
GASTEIGER

@<TRIPOS>ATOM
      1 O           4.6660    1.8100    0.0000 O.2     1  UNL1       -0.2671
      2 O           6.3981   -1.1900    0.0000 O.2     1  UNL1       -0.2467
      3 N           4.6660   -1.1900    0.0000 N.ar    1  UNL1       -0.3072
      4 N           5.5321    0.3100    0.0000 N.ar    1  UNL1       -0.2746
      5 C           3.8000    0.3100    0.0000 C.ar    1  UNL1        0.0628
      6 C           3.8000   -0.6900    0.0000 C.ar    1  UNL1        0.0556
      7 C           4.6660    0.8100    0.0000 C.ar    1  UNL1        0.2617
      8 C           2.9061    0.8447    0.0000 C.ar    1  UNL1       -0.0474
      9 C           2.9061   -1.2247    0.0000 C.ar    1  UNL1       -0.0375
     10 C           5.5321   -0.6900    0.0000 C.ar    1  UNL1        0.3272
     11 C           2.0000    0.3308    0.0000 C.ar    1  UNL1       -0.0609
     12 C           2.0000   -0.7108    0.0000 C.ar    1  UNL1       -0.0598
     13 H           4.6660   -1.8100    0.0000 H       1  UNL1        0.1704
     14 H           2.9132    1.4646    0.0000 H       1  UNL1        0.0626
     15 H           2.9132   -1.8446    0.0000 H       1  UNL1        0.0638
     16 H           6.0690    0.6200    0.0000 H       1  UNL1        0.1734
     17 H           1.4643    0.6429    0.0000 H       1  UNL1        0.0618
     18 H           1.4643   -1.0229    0.0000 H       1  UNL1        0.0618
@<TRIPOS>BOND
     1     1     7    2
     2     2    10    2
     3     3     6   ar
     4     3    10   ar
     5     3    13    1
     6     4     7   ar
     7     4    10   ar
     8     4    16    1
     9     5     6   ar
    10     5     7   ar
    11     5     8   ar
    12     6     9   ar
    13     8    11   ar
    14     8    14    1
    15     9    12   ar
    16     9    15    1
    17    11    12   ar
    18    11    17    1
    19    12    18    1
