@<TRIPOS>MOLECULE
IMPHY012416
 47 49 0 0 0
SMALL
GASTEIGER

@<TRIPOS>ATOM
      1 O           6.8671    0.1550    0.0000 O.3     1  UNL1       -0.3095
      2 O           9.4893    0.7639    0.0000 O.3     1  UNL1       -0.3883
      3 O           6.0010    1.6550    0.0000 O.2     1  UNL1       -0.4709
      4 O           5.1350    0.1550    0.0000 O.3     1  UNL1       -0.3404
      5 O           6.8671   -1.8450    0.0000 O.3     1  UNL1       -0.3841
      6 O           5.1350   -2.8450    0.0000 O.3     1  UNL1       -0.3864
      7 O           3.4030   -1.8450    0.0000 O.3     1  UNL1       -0.3865
      8 O           2.5369   -0.3450    0.0000 O.3     1  UNL1       -0.3924
      9 C           7.7331    1.6550    0.0000 C.3     1  UNL1        0.0564
     10 C           8.6793    1.3503    0.0000 C.3     1  UNL1        0.0724
     11 C           7.7331    2.6550    0.0000 C.3     1  UNL1       -0.0085
     12 C           9.2629    2.1550    0.0000 C.3     1  UNL1       -0.0232
     13 C           8.6793    2.9597    0.0000 C.3     1  UNL1       -0.0435
     14 C           6.8671    1.1550    0.0000 C.3     1  UNL1        0.2094
     15 C           8.3719    0.3987    0.0000 C.3     1  UNL1       -0.0356
     16 C           6.8671    3.1550    0.0000 C.2     1  UNL1       -0.0459
     17 C           6.0010   -0.3450    0.0000 C.3     1  UNL1        0.1918
     18 C           6.0010   -1.3450    0.0000 C.3     1  UNL1        0.1342
     19 C           6.0010    2.6550    0.0000 C.2     1  UNL1        0.0842
     20 C           5.1350   -1.8450    0.0000 C.3     1  UNL1        0.1141
     21 C           4.2690   -1.3450    0.0000 C.3     1  UNL1        0.1119
     22 C           4.2690   -0.3450    0.0000 C.3     1  UNL1        0.1130
     23 C           3.4030    0.1550    0.0000 C.3     1  UNL1        0.0730
     24 H           7.8230    0.8098    0.0000 H       1  UNL1        0.0395
     25 H           7.8230    3.5002    0.0000 H       1  UNL1        0.0350
     26 H           9.7238    1.7403    0.0000 H       1  UNL1        0.0293
     27 H           9.7238    2.5697    0.0000 H       1  UNL1        0.0293
     28 H           9.2167    3.2690    0.0000 H       1  UNL1        0.0272
     29 H           8.4283    3.5266    0.0000 H       1  UNL1        0.0272
     30 H           7.4040    0.8450    0.0000 H       1  UNL1        0.1060
     31 H           7.7820    0.5892    0.0000 H       1  UNL1        0.0257
     32 H           8.1814   -0.1913    0.0000 H       1  UNL1        0.0257
     33 H           8.9619    0.2081    0.0000 H       1  UNL1        0.0257
     34 H           6.8671    3.7750    0.0000 H       1  UNL1        0.0605
     35 H           6.0010    0.2750    0.0000 H       1  UNL1        0.0939
     36 H          10.0553    1.0170    0.0000 H       1  UNL1        0.2102
     37 H           6.0010   -1.9650    0.0000 H       1  UNL1        0.0671
     38 H           5.4641    2.9650    0.0000 H       1  UNL1        0.1021
     39 H           4.5981   -2.1550    0.0000 H       1  UNL1        0.0648
     40 H           4.2690   -1.9650    0.0000 H       1  UNL1        0.0647
     41 H           4.2690    0.2750    0.0000 H       1  UNL1        0.0647
     42 H           3.8015    0.6299    0.0000 H       1  UNL1        0.0584
     43 H           3.0044    0.6299    0.0000 H       1  UNL1        0.0584
     44 H           6.8671   -2.4650    0.0000 H       1  UNL1        0.2101
     45 H           4.5981   -3.1550    0.0000 H       1  UNL1        0.2100
     46 H           3.4030   -2.4650    0.0000 H       1  UNL1        0.2100
     47 H           2.0000   -0.0350    0.0000 H       1  UNL1        0.2095
@<TRIPOS>BOND
     1     1    14    1
     2    17     1    1
     3    10     2    1
     4     2    36    1
     5     3    14    1
     6     3    19    1
     7     4    17    1
     8     4    22    1
     9    18     5    1
    10     5    44    1
    11    20     6    1
    12     6    45    1
    13    21     7    1
    14     7    46    1
    15     8    23    1
    16     8    47    1
    17     9    10    1
    18     9    11    1
    19     9    14    1
    20     9    24    1
    21    10    12    1
    22    10    15    1
    23    11    13    1
    24    11    16    1
    25    11    25    1
    26    12    13    1
    27    12    26    1
    28    12    27    1
    29    13    28    1
    30    13    29    1
    31    14    30    1
    32    15    31    1
    33    15    32    1
    34    15    33    1
    35    16    19    2
    36    16    34    1
    37    17    18    1
    38    17    35    1
    39    18    20    1
    40    18    37    1
    41    19    38    1
    42    20    21    1
    43    20    39    1
    44    21    22    1
    45    21    40    1
    46    22    23    1
    47    22    41    1
    48    23    42    1
    49    23    43    1
