@<TRIPOS>MOLECULE
IMPHY011938
 42 43 0 0 0
SMALL
GASTEIGER

@<TRIPOS>ATOM
      1 O           2.5369    1.2327    0.0000 O.3     1  UNL1       -0.3888
      2 C           6.0010   -0.7673    0.0000 C.3     1  UNL1       -0.0108
      3 C           4.2690    0.2327    0.0000 C.3     1  UNL1       -0.0089
      4 C           6.0010    0.2327    0.0000 C.2     1  UNL1       -0.0643
      5 C           5.1350   -1.2673    0.0000 C.3     1  UNL1       -0.0436
      6 C           5.1350    0.7327    0.0000 C.3     1  UNL1       -0.0256
      7 C           4.2690   -0.7673    0.0000 C.3     1  UNL1       -0.0465
      8 C           6.8950   -1.3020    0.0000 C.3     1  UNL1       -0.0436
      9 C           3.4030    0.7327    0.0000 C.3     1  UNL1        0.0636
     10 C           6.8950    0.7674    0.0000 C.2     1  UNL1       -0.0728
     11 C           7.8010   -0.7881    0.0000 C.3     1  UNL1       -0.0486
     12 C           6.0010   -1.7673    0.0000 C.3     1  UNL1       -0.0558
     13 C           7.8010    0.2535    0.0000 C.3     1  UNL1       -0.0317
     14 C           2.9030   -0.1333    0.0000 C.3     1  UNL1       -0.0361
     15 C           3.9030    1.5987    0.0000 C.3     1  UNL1       -0.0361
     16 C           6.8834    1.7673    0.0000 C.3     1  UNL1       -0.0435
     17 H           3.5329   -0.1923    0.0000 H       1  UNL1        0.0331
     18 H           4.7365   -1.7422    0.0000 H       1  UNL1        0.0274
     19 H           5.5335   -1.7422    0.0000 H       1  UNL1        0.0274
     20 H           5.5335    1.2076    0.0000 H       1  UNL1        0.0314
     21 H           4.7365    1.2076    0.0000 H       1  UNL1        0.0314
     22 H           3.6584   -0.6596    0.0000 H       1  UNL1        0.0269
     23 H           4.0569   -1.3499    0.0000 H       1  UNL1        0.0269
     24 H           6.4904   -1.7718    0.0000 H       1  UNL1        0.0274
     25 H           7.2886   -1.7810    0.0000 H       1  UNL1        0.0274
     26 H           8.0101   -1.3718    0.0000 H       1  UNL1        0.0269
     27 H           8.4119   -0.6820    0.0000 H       1  UNL1        0.0269
     28 H           5.3810   -1.7673    0.0000 H       1  UNL1        0.0238
     29 H           6.0010   -2.3873    0.0000 H       1  UNL1        0.0238
     30 H           6.6210   -1.7673    0.0000 H       1  UNL1        0.0238
     31 H           8.4119    0.1474    0.0000 H       1  UNL1        0.0310
     32 H           8.0101    0.8372    0.0000 H       1  UNL1        0.0310
     33 H           2.3660    0.1767    0.0000 H       1  UNL1        0.0257
     34 H           2.5930   -0.6703    0.0000 H       1  UNL1        0.0257
     35 H           3.4399   -0.4433    0.0000 H       1  UNL1        0.0257
     36 H           4.4399    1.2887    0.0000 H       1  UNL1        0.0257
     37 H           4.2130    2.1357    0.0000 H       1  UNL1        0.0257
     38 H           3.3660    1.9087    0.0000 H       1  UNL1        0.0257
     39 H           7.5034    1.7745    0.0000 H       1  UNL1        0.0274
     40 H           6.8762    2.3873    0.0000 H       1  UNL1        0.0274
     41 H           6.2635    1.7601    0.0000 H       1  UNL1        0.0274
     42 H           2.0000    0.9227    0.0000 H       1  UNL1        0.2101
@<TRIPOS>BOND
     1     1     9    1
     2     1    42    1
     3     2     4    1
     4     2     5    1
     5     2     8    1
     6     2    12    1
     7     3     6    1
     8     3     7    1
     9     3     9    1
    10     3    17    1
    11     4     6    1
    12     4    10    2
    13     5     7    1
    14     5    18    1
    15     5    19    1
    16     6    20    1
    17     6    21    1
    18     7    22    1
    19     7    23    1
    20     8    11    1
    21     8    24    1
    22     8    25    1
    23     9    14    1
    24     9    15    1
    25    10    13    1
    26    10    16    1
    27    11    13    1
    28    11    26    1
    29    11    27    1
    30    12    28    1
    31    12    29    1
    32    12    30    1
    33    13    31    1
    34    13    32    1
    35    14    33    1
    36    14    34    1
    37    14    35    1
    38    15    36    1
    39    15    37    1
    40    15    38    1
    41    16    39    1
    42    16    40    1
    43    16    41    1
