@<TRIPOS>MOLECULE
IMPHY000486
 36 39 0 0 0
SMALL
GASTEIGER

@<TRIPOS>ATOM
      1 O        2603.8700 2379.8000    0.0000 O.2     1  UNL1       -0.2862
      2 C        2603.8700 2419.8000    0.0000 C.ar    1  UNL1        0.2048
      3 C        2569.3300 2439.9500    0.0000 C.ar    1  UNL1        0.1125
      4 C        2569.3300 2480.2500    0.0000 C.ar    1  UNL1        0.1545
      5 O        2603.8700 2500.4000    0.0000 O.2     1  UNL1       -0.4531
      6 C        2638.4100 2480.2500    0.0000 C.ar    1  UNL1        0.1484
      7 C        2638.4100 2439.9500    0.0000 C.ar    1  UNL1        0.0797
      8 C        2673.0500 2500.2000    0.0000 C.ar    1  UNL1        0.0349
      9 C        2673.0500 2540.2000    0.0000 C.ar    1  UNL1        0.0063
     10 C        2707.7900 2560.2500    0.0000 C.ar    1  UNL1        0.0421
     11 C        2742.3300 2540.2000    0.0000 C.ar    1  UNL1        0.1957
     12 C        2742.3300 2500.2000    0.0000 C.ar    1  UNL1        0.0421
     13 C        2707.7900 2480.2500    0.0000 C.ar    1  UNL1        0.0063
     14 O        2776.9700 2560.2500    0.0000 O.3     1  UNL1       -0.2866
     15 C        2534.6900 2500.4000    0.0000 C.ar    1  UNL1        0.0754
     16 C        2500.1500 2480.2500    0.0000 C.ar    1  UNL1        0.1548
     17 C        2500.1500 2439.9500    0.0000 C.ar    1  UNL1        0.0799
     18 C        2534.6900 2419.8000    0.0000 C.ar    1  UNL1        0.2048
     19 O        2534.6900 2379.8000    0.0000 O.3     1  UNL1       -0.2862
     20 O        2465.5100 2500.2000    0.0000 O.3     1  UNL1       -0.4222
     21 C        2430.8700 2480.2500    0.0000 C.2     1  UNL1        0.3490
     22 C        2396.2300 2500.2000    0.0000 C.3     1  UNL1        0.2162
     23 O        2361.5900 2480.2500    0.0000 O.3     1  UNL1       -0.3196
     24 C        2326.9500 2500.2000    0.0000 C.3     1  UNL1        0.2699
     25 O        2326.9500 2540.2000    0.0000 O.3     1  UNL1       -0.3256
     26 C        2292.4100 2560.2500    0.0000 C.3     1  UNL1        0.1835
     27 C        2292.4100 2600.2500    0.0000 C.3     1  UNL1        0.2142
     28 O        2257.6700 2620.2000    0.0000 O.3     1  UNL1       -0.2176
     29 C        2257.6700 2540.2000    0.0000 C.3     1  UNL1        0.2144
     30 C        2257.6700 2500.2000    0.0000 C.3     1  UNL1        0.2198
     31 C        2292.4100 2480.2500    0.0000 C.3     1  UNL1        0.2406
     32 O        2292.4100 2440.2500    0.0000 O.3     1  UNL1       -0.2149
     33 O        2223.0300 2480.2500    0.0000 O.3     1  UNL1       -0.2174
     34 O        2223.0300 2560.2500    0.0000 O.3     1  UNL1       -0.2176
     35 C        2396.2300 2540.2000    0.0000 C.3     1  UNL1        0.0443
     36 O        2430.8700 2440.2500    0.0000 O.2     1  UNL1       -0.2470
@<TRIPOS>BOND
     1     1     2    2
     2     2     3   ar
     3     2     7   ar
     4     3     4   ar
     5     3    18   ar
     6     4     5   ar
     7     4    15   ar
     8     6     5   ar
     9     6     8    1
    10     7     6   ar
    11     8     9   ar
    12     8    13   ar
    13     9    10   ar
    14    10    11   ar
    15    11    14    1
    16    12    11   ar
    17    13    12   ar
    18    15    16   ar
    19    16    20    1
    20    17    16   ar
    21    18    17   ar
    22    18    19    1
    23    20    21    1
    24    21    22    1
    25    21    36    2
    26    22    23    1
    27    22    35    1
    28    24    23    1
    29    24    25    1
    30    24    31    1
    31    25    26    1
    32    26    27    1
    33    26    29    1
    34    27    28    1
    35    29    34    1
    36    30    29    1
    37    30    33    1
    38    31    30    1
    39    31    32    1
