@<TRIPOS>MOLECULE
IMPHY008938
 158 166 0 0 0
SMALL
GASTEIGER

@<TRIPOS>ATOM
      1 O          22.1241    2.1485    0.0000 O.3     1  UNL1       -0.3850
      2 O          21.5601    2.4770    0.0000 O.3     1  UNL1       -0.3851
      3 O          20.9028   -1.2866    0.0000 O.3     1  UNL1       -0.4572
      4 O          16.3933    3.2832    0.0000 O.3     1  UNL1       -0.3477
      5 O          22.3559   -1.7917    0.0000 O.2     1  UNL1       -0.2974
      6 O          19.1708   -1.2799    0.0000 O.2     1  UNL1       -0.2450
      7 O          14.6613    3.2832    0.0000 O.3     1  UNL1       -0.3456
      8 O          14.6613    0.2832    0.0000 O.3     1  UNL1       -0.3770
      9 O          12.9292    1.2832    0.0000 O.3     1  UNL1       -0.3429
     10 O          12.0632    2.7832    0.0000 O.3     1  UNL1       -0.3456
     11 O           9.4651    1.2832    0.0000 O.3     1  UNL1       -0.3770
     12 O           9.4651    3.2832    0.0000 O.3     1  UNL1       -0.3429
     13 O           7.7331    3.2832    0.0000 O.3     1  UNL1       -0.3456
     14 O           6.0010    1.2832    0.0000 O.3     1  UNL1       -0.3429
     15 O           7.7331    0.2832    0.0000 O.3     1  UNL1       -0.3770
     16 O           4.2690    1.2832    0.0000 O.3     1  UNL1       -0.3456
     17 O           4.2690    4.2832    0.0000 O.3     1  UNL1       -0.3770
     18 O           2.5369    3.2832    0.0000 O.3     1  UNL1       -0.3867
     19 C          21.7785    1.2101    0.0000 C.3     1  UNL1        0.1045
     20 C          21.7746    0.2101    0.0000 C.3     1  UNL1        0.0458
     21 C          20.9144    1.7134    0.0000 C.3     1  UNL1        0.1023
     22 C          20.0464    1.2168    0.0000 C.3     1  UNL1        0.0033
     23 C          20.9067   -0.2866    0.0000 C.3     1  UNL1        0.1125
     24 C          19.1384    1.7271    0.0000 C.3     1  UNL1       -0.0053
     25 C          22.7197   -0.0983    0.0000 C.3     1  UNL1        0.0288
     26 C          20.0426    0.2168    0.0000 C.3     1  UNL1       -0.0087
     27 C          22.7259    1.5112    0.0000 C.3     1  UNL1       -0.0199
     28 C          23.3064    0.7042    0.0000 C.3     1  UNL1       -0.0401
     29 C          20.9345    2.7549    0.0000 C.3     1  UNL1       -0.0025
     30 C          21.7708   -0.7899    0.0000 C.3     1  UNL1       -0.0528
     31 C          19.1344    2.7687    0.0000 C.2     1  UNL1       -0.0647
     32 C          18.2094    1.1666    0.0000 C.3     1  UNL1       -0.0412
     33 C          20.0385    3.2861    0.0000 C.2     1  UNL1       -0.0813
     34 C          19.1423    0.7271    0.0000 C.3     1  UNL1       -0.0555
     35 C          18.2011    3.3221    0.0000 C.3     1  UNL1       -0.0047
     36 C          23.0267   -1.0500    0.0000 C.2     1  UNL1        0.1341
     37 C          17.2635    1.6982    0.0000 C.3     1  UNL1       -0.0254
     38 C          17.2594    2.7832    0.0000 C.3     1  UNL1        0.0654
     39 C          24.0044   -1.2600    0.0000 C.3     1  UNL1       -0.0058
     40 C          20.0349   -1.7832    0.0000 C.2     1  UNL1        0.3395
     41 C          15.5273    2.7832    0.0000 C.3     1  UNL1        0.1624
     42 C          20.0310   -2.7832    0.0000 C.ar    1  UNL1        0.0590
     43 C          15.5273    1.7832    0.0000 C.3     1  UNL1        0.0272
     44 C          14.6613    1.2832    0.0000 C.3     1  UNL1        0.0915
     45 C          19.1631   -3.2799    0.0000 C.ar    1  UNL1       -0.0478
     46 C          20.8951   -3.2865    0.0000 C.ar    1  UNL1       -0.0478
     47 C          13.7953    2.7832    0.0000 C.3     1  UNL1        0.0875
     48 C          13.7953    1.7832    0.0000 C.3     1  UNL1        0.1137
     49 C          19.1592   -4.2799    0.0000 C.ar    1  UNL1       -0.0610
     50 C          20.8913   -4.2865    0.0000 C.ar    1  UNL1       -0.0610
     51 C          12.9292    3.2832    0.0000 C.3     1  UNL1       -0.0361
     52 C          20.0233   -4.7832    0.0000 C.ar    1  UNL1       -0.0617
     53 C          12.0632    1.7832    0.0000 C.3     1  UNL1        0.1626
     54 C          15.5273   -0.2168    0.0000 C.3     1  UNL1        0.0369
     55 C          11.1972    1.2832    0.0000 C.3     1  UNL1        0.0272
     56 C          10.3312    1.7832    0.0000 C.3     1  UNL1        0.0915
     57 C          11.1972    3.2832    0.0000 C.3     1  UNL1        0.0875
     58 C          10.3312    2.7832    0.0000 C.3     1  UNL1        0.1137
     59 C          11.1972    4.2832    0.0000 C.3     1  UNL1       -0.0361
     60 C           8.5991    2.7832    0.0000 C.3     1  UNL1        0.1626
     61 C           9.4651    0.2832    0.0000 C.3     1  UNL1        0.0369
     62 C           8.5991    1.7832    0.0000 C.3     1  UNL1        0.0272
     63 C           7.7331    1.2832    0.0000 C.3     1  UNL1        0.0915
     64 C           6.8671    1.7832    0.0000 C.3     1  UNL1        0.1137
     65 C           6.8671    2.7832    0.0000 C.3     1  UNL1        0.0875
     66 C           6.0010    3.2832    0.0000 C.3     1  UNL1       -0.0361
     67 C           5.1350    1.7832    0.0000 C.3     1  UNL1        0.1626
     68 C           5.1350    2.7832    0.0000 C.3     1  UNL1        0.0272
     69 C           4.2690    3.2832    0.0000 C.3     1  UNL1        0.0911
     70 C           3.4030    2.7832    0.0000 C.3     1  UNL1        0.1073
     71 C           3.4030    1.7832    0.0000 C.3     1  UNL1        0.0871
     72 C           6.8671   -0.2168    0.0000 C.3     1  UNL1        0.0369
     73 C           2.5369    1.2832    0.0000 C.3     1  UNL1       -0.0361
     74 C           3.4030    4.7832    0.0000 C.3     1  UNL1        0.0369
     75 H          20.7809    0.7889    0.0000 H       1  UNL1        0.0339
     76 H          20.3685   -0.5945    0.0000 H       1  UNL1        0.0741
     77 H          23.3318   -0.1968    0.0000 H       1  UNL1        0.0385
     78 H          19.4324    0.3268    0.0000 H       1  UNL1        0.0305
     79 H          19.8283   -0.3650    0.0000 H       1  UNL1        0.0305
     80 H          23.2644    1.8183    0.0000 H       1  UNL1        0.0294
     81 H          22.4770    2.0790    0.0000 H       1  UNL1        0.0294
     82 H          23.7656    0.2877    0.0000 H       1  UNL1        0.0273
     83 H          23.7688    1.1171    0.0000 H       1  UNL1        0.0273
     84 H          21.5432    2.6370    0.0000 H       1  UNL1        0.0336
     85 H          21.1547    3.3344    0.0000 H       1  UNL1        0.0336
     86 H          21.1508   -0.7875    0.0000 H       1  UNL1        0.0237
     87 H          21.7684   -1.4099    0.0000 H       1  UNL1        0.0237
     88 H          22.3908   -0.7923    0.0000 H       1  UNL1        0.0237
     89 H          17.8176    0.6861    0.0000 H       1  UNL1        0.0274
     90 H          18.6158    0.6984    0.0000 H       1  UNL1        0.0274
     91 H          20.0432    3.9060    0.0000 H       1  UNL1        0.0573
     92 H          22.7351    2.2538    0.0000 H       1  UNL1        0.2103
     93 H          18.5223    0.7247    0.0000 H       1  UNL1        0.0238
     94 H          19.1446    0.1071    0.0000 H       1  UNL1        0.0238
     95 H          19.7622    0.7295    0.0000 H       1  UNL1        0.0238
     96 H          21.6701    3.0871    0.0000 H       1  UNL1        0.2103
     97 H          18.6039    3.7934    0.0000 H       1  UNL1        0.0335
     98 H          17.8056    3.7996    0.0000 H       1  UNL1        0.0335
     99 H          16.6523    1.8019    0.0000 H       1  UNL1        0.0290
    100 H          17.0567    1.1137    0.0000 H       1  UNL1        0.0290
    101 H          16.7230    2.4722    0.0000 H       1  UNL1        0.0600
    102 H          23.8742   -1.8662    0.0000 H       1  UNL1        0.0306
    103 H          24.6105   -1.3902    0.0000 H       1  UNL1        0.0306
    104 H          24.1346   -0.6538    0.0000 H       1  UNL1        0.0306
    105 H          15.5273    3.4032    0.0000 H       1  UNL1        0.0910
    106 H          15.7394    1.2006    0.0000 H       1  UNL1        0.0340
    107 H          16.1379    1.8908    0.0000 H       1  UNL1        0.0340
    108 H          14.1244    0.9732    0.0000 H       1  UNL1        0.0624
    109 H          18.6273   -2.9678    0.0000 H       1  UNL1        0.0626
    110 H          21.4332   -2.9786    0.0000 H       1  UNL1        0.0626
    111 H          13.7953    3.4032    0.0000 H       1  UNL1        0.0621
    112 H          13.2583    2.0932    0.0000 H       1  UNL1        0.0649
    113 H          18.6211   -4.5878    0.0000 H       1  UNL1        0.0618
    114 H          21.4270   -4.5986    0.0000 H       1  UNL1        0.0618
    115 H          13.2392    3.8201    0.0000 H       1  UNL1        0.0255
    116 H          12.3923    3.5932    0.0000 H       1  UNL1        0.0255
    117 H          12.6192    2.7463    0.0000 H       1  UNL1        0.0255
    118 H          20.0209   -5.4032    0.0000 H       1  UNL1        0.0618
    119 H          12.0632    1.1632    0.0000 H       1  UNL1        0.0910
    120 H          15.2173   -0.7537    0.0000 H       1  UNL1        0.0524
    121 H          16.0643   -0.5268    0.0000 H       1  UNL1        0.0524
    122 H          15.8373    0.3201    0.0000 H       1  UNL1        0.0524
    123 H          10.7987    0.8082    0.0000 H       1  UNL1        0.0340
    124 H          11.5957    0.8082    0.0000 H       1  UNL1        0.0340
    125 H           9.7942    2.0932    0.0000 H       1  UNL1        0.0624
    126 H          11.7341    3.5932    0.0000 H       1  UNL1        0.0621
    127 H          10.3312    3.4032    0.0000 H       1  UNL1        0.0649
    128 H          11.8172    4.2832    0.0000 H       1  UNL1        0.0255
    129 H          11.1972    4.9032    0.0000 H       1  UNL1        0.0255
    130 H          10.5772    4.2832    0.0000 H       1  UNL1        0.0255
    131 H           8.5991    3.4032    0.0000 H       1  UNL1        0.0910
    132 H           8.8112    1.2006    0.0000 H       1  UNL1        0.0340
    133 H           9.2097    1.8908    0.0000 H       1  UNL1        0.0340
    134 H           8.8451    0.2832    0.0000 H       1  UNL1        0.0524
    135 H           9.4651   -0.3368    0.0000 H       1  UNL1        0.0524
    136 H          10.0851    0.2832    0.0000 H       1  UNL1        0.0524
    137 H           8.2700    0.9732    0.0000 H       1  UNL1        0.0624
    138 H           6.3301    2.0932    0.0000 H       1  UNL1        0.0649
    139 H           6.8671    3.4032    0.0000 H       1  UNL1        0.0621
    140 H           6.3110    3.8201    0.0000 H       1  UNL1        0.0255
    141 H           5.4641    3.5932    0.0000 H       1  UNL1        0.0255
    142 H           5.6910    2.7463    0.0000 H       1  UNL1        0.0255
    143 H           5.1350    1.1632    0.0000 H       1  UNL1        0.0910
    144 H           5.7456    2.6755    0.0000 H       1  UNL1        0.0340
    145 H           5.3471    3.3658    0.0000 H       1  UNL1        0.0340
    146 H           4.8059    3.5932    0.0000 H       1  UNL1        0.0624
    147 H           3.4030    3.4032    0.0000 H       1  UNL1        0.0645
    148 H           3.4030    1.1632    0.0000 H       1  UNL1        0.0621
    149 H           6.5571    0.3201    0.0000 H       1  UNL1        0.0524
    150 H           6.3301   -0.5268    0.0000 H       1  UNL1        0.0524
    151 H           7.1771   -0.7537    0.0000 H       1  UNL1        0.0524
    152 H           2.2269    1.8201    0.0000 H       1  UNL1        0.0255
    153 H           2.0000    0.9732    0.0000 H       1  UNL1        0.0255
    154 H           2.8469    0.7463    0.0000 H       1  UNL1        0.0255
    155 H           2.0000    2.9732    0.0000 H       1  UNL1        0.2100
    156 H           3.7130    5.3201    0.0000 H       1  UNL1        0.0524
    157 H           2.8660    5.0932    0.0000 H       1  UNL1        0.0524
    158 H           3.0930    4.2463    0.0000 H       1  UNL1        0.0524
@<TRIPOS>BOND
     1    19     1    1
     2     1    92    1
     3    21     2    1
     4     2    96    1
     5    23     3    1
     6     3    40    1
     7    38     4    1
     8    41     4    1
     9     5    36    2
    10     6    40    2
    11     7    41    1
    12     7    47    1
    13    44     8    1
    14     8    54    1
    15    48     9    1
    16    53     9    1
    17    10    53    1
    18    10    57    1
    19    56    11    1
    20    11    61    1
    21    58    12    1
    22    60    12    1
    23    13    60    1
    24    13    65    1
    25    64    14    1
    26    67    14    1
    27    63    15    1
    28    15    72    1
    29    16    67    1
    30    16    71    1
    31    69    17    1
    32    17    74    1
    33    70    18    1
    34    18   155    1
    35    19    20    1
    36    19    21    1
    37    19    27    1
    38    20    23    1
    39    20    25    1
    40    20    30    1
    41    21    22    1
    42    21    29    1
    43    22    24    1
    44    22    26    1
    45    22    75    1
    46    23    26    1
    47    23    76    1
    48    24    31    1
    49    24    32    1
    50    24    34    1
    51    25    28    1
    52    25    36    1
    53    25    77    1
    54    26    78    1
    55    26    79    1
    56    27    28    1
    57    27    80    1
    58    27    81    1
    59    28    82    1
    60    28    83    1
    61    29    33    1
    62    29    84    1
    63    29    85    1
    64    30    86    1
    65    30    87    1
    66    30    88    1
    67    31    33    2
    68    31    35    1
    69    32    37    1
    70    32    89    1
    71    32    90    1
    72    33    91    1
    73    34    93    1
    74    34    94    1
    75    34    95    1
    76    35    38    1
    77    35    97    1
    78    35    98    1
    79    36    39    1
    80    37    38    1
    81    37    99    1
    82    37   100    1
    83    38   101    1
    84    39   102    1
    85    39   103    1
    86    39   104    1
    87    40    42    1
    88    41    43    1
    89    41   105    1
    90    42    45   ar
    91    42    46   ar
    92    43    44    1
    93    43   106    1
    94    43   107    1
    95    44    48    1
    96    44   108    1
    97    45    49   ar
    98    45   109    1
    99    46    50   ar
   100    46   110    1
   101    47    48    1
   102    47    51    1
   103    47   111    1
   104    48   112    1
   105    49    52   ar
   106    49   113    1
   107    50    52   ar
   108    50   114    1
   109    51   115    1
   110    51   116    1
   111    51   117    1
   112    52   118    1
   113    53    55    1
   114    53   119    1
   115    54   120    1
   116    54   121    1
   117    54   122    1
   118    55    56    1
   119    55   123    1
   120    55   124    1
   121    56    58    1
   122    56   125    1
   123    57    58    1
   124    57    59    1
   125    57   126    1
   126    58   127    1
   127    59   128    1
   128    59   129    1
   129    59   130    1
   130    60    62    1
   131    60   131    1
   132    61   134    1
   133    61   135    1
   134    61   136    1
   135    62    63    1
   136    62   132    1
   137    62   133    1
   138    63    64    1
   139    63   137    1
   140    64    65    1
   141    64   138    1
   142    65    66    1
   143    65   139    1
   144    66   140    1
   145    66   141    1
   146    66   142    1
   147    67    68    1
   148    67   143    1
   149    68    69    1
   150    68   144    1
   151    68   145    1
   152    69    70    1
   153    69   146    1
   154    70    71    1
   155    70   147    1
   156    71    73    1
   157    71   148    1
   158    72   149    1
   159    72   150    1
   160    72   151    1
   161    73   152    1
   162    73   153    1
   163    73   154    1
   164    74   156    1
   165    74   157    1
   166    74   158    1
