@<TRIPOS>MOLECULE
IMPHY007790
 32 32 0 0 0
SMALL
GASTEIGER

@<TRIPOS>ATOM
      1 O           5.1350   -2.0000    0.0000 O.2     1  UNL1       -0.4268
      2 O           3.4030    1.0000    0.0000 O.2     1  UNL1       -0.2917
      3 O           2.5369   -0.5000    0.0000 O.3     1  UNL1       -0.5057
      4 O           6.0010   -0.5000    0.0000 O.2     1  UNL1       -0.2443
      5 C           6.0010    2.5000    0.0000 C.3     1  UNL1       -0.0463
      6 C           5.1350    2.0000    0.0000 C.3     1  UNL1       -0.0437
      7 C           5.1350    1.0000    0.0000 C.3     1  UNL1        0.0111
      8 C           6.0010    3.5000    0.0000 C.3     1  UNL1       -0.0627
      9 C           6.8671    2.0000    0.0000 C.3     1  UNL1       -0.0627
     10 C           4.2690    0.5000    0.0000 C.2     1  UNL1        0.1736
     11 C           4.2690   -0.5000    0.0000 C.ar    1  UNL1        0.1429
     12 C           3.4030   -1.0000    0.0000 C.ar    1  UNL1        0.1374
     13 C           5.1350   -1.0000    0.0000 C.ar    1  UNL1        0.3511
     14 C           3.4030   -2.0000    0.0000 C.ar    1  UNL1        0.0187
     15 C           4.2690   -2.5000    0.0000 C.ar    1  UNL1        0.1096
     16 C           4.2690   -3.5000    0.0000 C.3     1  UNL1       -0.0061
     17 H           6.5380    2.8100    0.0000 H       1  UNL1        0.0296
     18 H           4.9230    2.5826    0.0000 H       1  UNL1        0.0272
     19 H           4.5244    1.8923    0.0000 H       1  UNL1        0.0272
     20 H           5.3471    0.4174    0.0000 H       1  UNL1        0.0345
     21 H           5.7456    1.1077    0.0000 H       1  UNL1        0.0345
     22 H           6.6210    3.5000    0.0000 H       1  UNL1        0.0232
     23 H           6.0010    4.1200    0.0000 H       1  UNL1        0.0232
     24 H           5.3810    3.5000    0.0000 H       1  UNL1        0.0232
     25 H           6.5571    1.4631    0.0000 H       1  UNL1        0.0232
     26 H           7.4040    1.6900    0.0000 H       1  UNL1        0.0232
     27 H           7.1771    2.5369    0.0000 H       1  UNL1        0.0232
     28 H           2.8660   -2.3100    0.0000 H       1  UNL1        0.0688
     29 H           3.6490   -3.5000    0.0000 H       1  UNL1        0.0308
     30 H           4.2690   -4.1200    0.0000 H       1  UNL1        0.0308
     31 H           4.8890   -3.5000    0.0000 H       1  UNL1        0.0308
     32 H           2.0000   -0.8100    0.0000 H       1  UNL1        0.2922
@<TRIPOS>BOND
     1     1    13   ar
     2     1    15   ar
     3     2    10    2
     4     3    12    1
     5     3    32    1
     6     4    13    2
     7     5     6    1
     8     5     8    1
     9     5     9    1
    10     5    17    1
    11     6     7    1
    12     6    18    1
    13     6    19    1
    14     7    10    1
    15     7    20    1
    16     7    21    1
    17     8    22    1
    18     8    23    1
    19     8    24    1
    20     9    25    1
    21     9    26    1
    22     9    27    1
    23    10    11    1
    24    11    12   ar
    25    11    13   ar
    26    12    14   ar
    27    14    15   ar
    28    14    28    1
    29    15    16    1
    30    16    29    1
    31    16    30    1
    32    16    31    1
