@<TRIPOS>MOLECULE
IMPHY013657
 33 36 0 0 0
SMALL
GASTEIGER

@<TRIPOS>ATOM
      1 O           3.7782   -1.7955    0.0000 O.2     1  UNL1       -0.2914
      2 N           5.1102    1.2269    0.0000 N.3     1  UNL1       -0.3092
      3 C           4.6660   -0.2641    0.0000 C.3     1  UNL1        0.0818
      4 C           5.5321    1.2359    0.0000 C.3     1  UNL1        0.0344
      5 C           5.5321    0.2359    0.0000 C.2     1  UNL1       -0.0345
      6 C           4.4629    0.1059    0.0000 C.3     1  UNL1       -0.0198
      7 C           3.8000    0.2359    0.0000 C.ar    1  UNL1       -0.0264
      8 C           4.6660    1.7359    0.0000 C.3     1  UNL1       -0.0081
      9 C           4.3793    0.9015    0.0000 C.3     1  UNL1       -0.0021
     10 C           3.8000    1.2359    0.0000 C.ar    1  UNL1       -0.0411
     11 C           4.6500   -1.3056    0.0000 C.2     1  UNL1        0.1706
     12 C           6.4421   -0.2709    0.0000 C.2     1  UNL1       -0.0597
     13 C           2.9061   -0.2987    0.0000 C.ar    1  UNL1       -0.0570
     14 C           5.5480   -1.8333    0.0000 C.2     1  UNL1       -0.0180
     15 C           2.9061    1.7706    0.0000 C.ar    1  UNL1       -0.0582
     16 C           6.4501   -1.3125    0.0000 C.2     1  UNL1       -0.0584
     17 C           2.0000    0.2151    0.0000 C.ar    1  UNL1       -0.0614
     18 C           2.0000    1.2568    0.0000 C.ar    1  UNL1       -0.0615
     19 H           5.9571    1.9721    0.0000 H       1  UNL1        0.0510
     20 H           3.8682    0.2810    0.0000 H       1  UNL1        0.0293
     21 H           5.0546    0.2911    0.0000 H       1  UNL1        0.0293
     22 H           5.0646    2.2109    0.0000 H       1  UNL1        0.0332
     23 H           4.2675    2.2109    0.0000 H       1  UNL1        0.0332
     24 H           4.1877    1.4911    0.0000 H       1  UNL1        0.0425
     25 H           3.7729    0.7726    0.0000 H       1  UNL1        0.0425
     26 H           5.2391    1.8333    0.0000 H       1  UNL1        0.1225
     27 H           6.9754    0.0453    0.0000 H       1  UNL1        0.0618
     28 H           2.9132   -0.9187    0.0000 H       1  UNL1        0.0621
     29 H           5.5456   -2.4533    0.0000 H       1  UNL1        0.0653
     30 H           2.9132    2.3906    0.0000 H       1  UNL1        0.0620
     31 H           6.9882   -1.6204    0.0000 H       1  UNL1        0.0619
     32 H           1.4643   -0.0969    0.0000 H       1  UNL1        0.0618
     33 H           1.4643    1.5688    0.0000 H       1  UNL1        0.0618
@<TRIPOS>BOND
     1     1    11    2
     2     2     4    1
     3     2     9    1
     4     2    26    1
     5     3     5    1
     6     3     6    1
     7     3     7    1
     8     3    11    1
     9     4     5    1
    10     4     8    1
    11     4    19    1
    12     5    12    2
    13     6     9    1
    14     6    20    1
    15     6    21    1
    16     7    10   ar
    17     7    13   ar
    18     8    10    1
    19     8    22    1
    20     8    23    1
    21     9    24    1
    22     9    25    1
    23    10    15   ar
    24    11    14    1
    25    12    16    1
    26    12    27    1
    27    13    17   ar
    28    13    28    1
    29    14    16    2
    30    14    29    1
    31    15    18   ar
    32    15    30    1
    33    16    31    1
    34    17    18   ar
    35    17    32    1
    36    18    33    1
