@<TRIPOS>MOLECULE
IMPHY002907
 48 49 0 0 0
SMALL
GASTEIGER

@<TRIPOS>ATOM
      1 O           6.8671   -0.5000    0.0000 O.3     1  UNL1       -0.3401
      2 O           5.1350   -0.5000    0.0000 O.3     1  UNL1       -0.3405
      3 O           8.5991    2.5000    0.0000 O.3     1  UNL1       -0.3745
      4 O           8.5991    0.5000    0.0000 O.3     1  UNL1       -0.3865
      5 O           5.1350    0.5000    0.0000 O.3     1  UNL1       -0.3865
      6 O           5.1350    2.5000    0.0000 O.3     1  UNL1       -0.3865
      7 O           6.8671    3.5000    0.0000 O.3     1  UNL1       -0.3865
      8 O           6.8671   -2.5000    0.0000 O.3     1  UNL1       -0.3841
      9 O           5.1350   -3.5000    0.0000 O.3     1  UNL1       -0.3864
     10 O           3.4030   -2.5000    0.0000 O.3     1  UNL1       -0.3865
     11 O           2.5369   -1.0000    0.0000 O.3     1  UNL1       -0.3924
     12 C           6.8671    0.5000    0.0000 C.3     1  UNL1        0.1183
     13 C           7.7331    1.0000    0.0000 C.3     1  UNL1        0.1124
     14 C           6.0010    1.0000    0.0000 C.3     1  UNL1        0.1122
     15 C           7.7331    2.0000    0.0000 C.3     1  UNL1        0.1149
     16 C           6.0010    2.0000    0.0000 C.3     1  UNL1        0.1118
     17 C           6.8671    2.5000    0.0000 C.3     1  UNL1        0.1121
     18 C           6.0010   -1.0000    0.0000 C.3     1  UNL1        0.1884
     19 C           6.0010   -2.0000    0.0000 C.3     1  UNL1        0.1341
     20 C           5.1350   -2.5000    0.0000 C.3     1  UNL1        0.1141
     21 C           4.2690   -2.0000    0.0000 C.3     1  UNL1        0.1119
     22 C           4.2690   -1.0000    0.0000 C.3     1  UNL1        0.1130
     23 C           3.4030   -0.5000    0.0000 C.3     1  UNL1        0.0730
     24 C           8.5991    3.5000    0.0000 C.3     1  UNL1        0.0370
     25 H           7.4040    0.1900    0.0000 H       1  UNL1        0.0651
     26 H           8.2700    1.3100    0.0000 H       1  UNL1        0.0647
     27 H           6.0010    0.3800    0.0000 H       1  UNL1        0.0647
     28 H           7.7331    2.6200    0.0000 H       1  UNL1        0.0649
     29 H           6.0010    2.6200    0.0000 H       1  UNL1        0.0647
     30 H           6.3301    2.8100    0.0000 H       1  UNL1        0.0647
     31 H           6.0010   -0.3800    0.0000 H       1  UNL1        0.0938
     32 H           6.0010   -2.6200    0.0000 H       1  UNL1        0.0671
     33 H           4.5981   -2.8100    0.0000 H       1  UNL1        0.0648
     34 H           3.7320   -1.6900    0.0000 H       1  UNL1        0.0647
     35 H           4.2690   -0.3800    0.0000 H       1  UNL1        0.0647
     36 H           9.1360    0.8100    0.0000 H       1  UNL1        0.2100
     37 H           4.5981    0.8100    0.0000 H       1  UNL1        0.2100
     38 H           5.1350    3.1200    0.0000 H       1  UNL1        0.2100
     39 H           6.3301    3.8100    0.0000 H       1  UNL1        0.2100
     40 H           3.8015   -0.0251    0.0000 H       1  UNL1        0.0584
     41 H           3.0044   -0.0251    0.0000 H       1  UNL1        0.0584
     42 H           6.8671   -3.1200    0.0000 H       1  UNL1        0.2101
     43 H           4.5981   -3.8100    0.0000 H       1  UNL1        0.2100
     44 H           3.4030   -3.1200    0.0000 H       1  UNL1        0.2100
     45 H           9.2191    3.5000    0.0000 H       1  UNL1        0.0524
     46 H           8.5991    4.1200    0.0000 H       1  UNL1        0.0524
     47 H           7.9791    3.5000    0.0000 H       1  UNL1        0.0524
     48 H           2.0000   -0.6900    0.0000 H       1  UNL1        0.2095
@<TRIPOS>BOND
     1    12     1    1
     2    18     1    1
     3     2    18    1
     4     2    22    1
     5    15     3    1
     6     3    24    1
     7    13     4    1
     8     4    36    1
     9    14     5    1
    10     5    37    1
    11    16     6    1
    12     6    38    1
    13    17     7    1
    14     7    39    1
    15    19     8    1
    16     8    42    1
    17    20     9    1
    18     9    43    1
    19    21    10    1
    20    10    44    1
    21    11    23    1
    22    11    48    1
    23    12    13    1
    24    12    14    1
    25    12    25    1
    26    13    15    1
    27    13    26    1
    28    14    16    1
    29    14    27    1
    30    15    17    1
    31    15    28    1
    32    16    17    1
    33    16    29    1
    34    17    30    1
    35    18    19    1
    36    18    31    1
    37    19    20    1
    38    19    32    1
    39    20    21    1
    40    20    33    1
    41    21    22    1
    42    21    34    1
    43    22    23    1
    44    22    35    1
    45    23    40    1
    46    23    41    1
    47    24    45    1
    48    24    46    1
    49    24    47    1
