@<TRIPOS>MOLECULE
IMPHY005494
 30 32 0 0 0
SMALL
GASTEIGER

@<TRIPOS>ATOM
      1 O           2.9176   -2.0925    0.0000 O.3     1  UNL1       -0.5015
      2 N           4.6660   -1.0579    0.0000 N.pl3   1  UNL1       -0.3771
      3 N           3.3073    1.8860    0.0000 N.ar    1  UNL1       -0.3602
      4 C           5.5321   -0.5579    0.0000 C.3     1  UNL1        0.0959
      5 C           3.8000   -0.5579    0.0000 C.ar    1  UNL1        0.1970
      6 C           5.5321    0.4421    0.0000 C.3     1  UNL1        0.0285
      7 C           3.8000    0.4421    0.0000 C.ar    1  UNL1        0.0718
      8 C           4.6660    0.9421    0.0000 C.ar    1  UNL1       -0.0104
      9 C           5.1660   -1.9239    0.0000 C.3     1  UNL1        0.0814
     10 C           4.1660   -1.9239    0.0000 C.3     1  UNL1        0.0814
     11 C           2.9061    0.9767    0.0000 C.ar    1  UNL1        0.0531
     12 C           2.9061   -1.0926    0.0000 C.ar    1  UNL1        0.1833
     13 C           4.3009    1.8664    0.0000 C.ar    1  UNL1        0.0063
     14 C           2.0000    0.4629    0.0000 C.ar    1  UNL1       -0.0339
     15 C           2.0000   -0.5787    0.0000 C.ar    1  UNL1       -0.0118
     16 H           5.7441   -1.1405    0.0000 H       1  UNL1        0.0972
     17 H           6.1426   -0.4503    0.0000 H       1  UNL1        0.0972
     18 H           6.1426    0.3344    0.0000 H       1  UNL1        0.0373
     19 H           5.7441    1.0247    0.0000 H       1  UNL1        0.0373
     20 H           4.6291   -2.2339    0.0000 H       1  UNL1        0.0931
     21 H           5.4760   -2.4609    0.0000 H       1  UNL1        0.0931
     22 H           3.6291   -1.6139    0.0000 H       1  UNL1        0.0931
     23 H           3.8560   -2.4609    0.0000 H       1  UNL1        0.0931
     24 H           4.7030   -2.2339    0.0000 H       1  UNL1        0.0931
     25 H           5.7030   -1.6139    0.0000 H       1  UNL1        0.0931
     26 H           4.6546    2.3756    0.0000 H       1  UNL1        0.0810
     27 H           2.9739    2.4087    0.0000 H       1  UNL1        0.1653
     28 H           1.4643    0.7750    0.0000 H       1  UNL1        0.0639
     29 H           1.4643   -0.8908    0.0000 H       1  UNL1        0.0657
     30 H           2.3843   -2.4087    0.0000 H       1  UNL1        0.2924
@<TRIPOS>UNITY_ATOM_ATTR
2 1
charge 1
@<TRIPOS>BOND
     1     1    12    1
     2     1    30    1
     3     2     4    1
     4     2     5    1
     5     2     9    1
     6     2    10    1
     7     3    11   ar
     8     3    13   ar
     9     3    27    1
    10     4     6    1
    11     4    16    1
    12     4    17    1
    13     5     7   ar
    14     5    12   ar
    15     6     8    1
    16     6    18    1
    17     6    19    1
    18     7     8   ar
    19     7    11   ar
    20     8    13   ar
    21     9    20    1
    22     9    21    1
    23     9    25    1
    24    10    22    1
    25    10    23    1
    26    10    24    1
    27    11    14   ar
    28    12    15   ar
    29    13    26    1
    30    14    15   ar
    31    14    28    1
    32    15    29    1
