@<TRIPOS>MOLECULE
IMPHY003048
 87 90 0 0 0
SMALL
GASTEIGER

@<TRIPOS>ATOM
      1 O           9.3312    0.7306    0.0000 O.3     1  UNL1       -0.3362
      2 O          10.3312   -0.2694    0.0000 O.3     1  UNL1       -0.3125
      3 O           8.5991   -0.2694    0.0000 O.3     1  UNL1       -0.3404
      4 O          12.0254    1.0907    0.0000 O.3     1  UNL1       -0.3433
      5 O          11.5912    1.9906    0.0000 O.3     1  UNL1       -0.3837
      6 O           9.8312    3.2694    0.0000 O.3     1  UNL1       -0.3864
      7 O          13.7196    1.4508    0.0000 O.3     1  UNL1       -0.3405
      8 O           6.0010   -0.7694    0.0000 O.3     1  UNL1       -0.3460
      9 O          10.3312   -2.2694    0.0000 O.3     1  UNL1       -0.3841
     10 O           8.5991   -3.2694    0.0000 O.3     1  UNL1       -0.3864
     11 O           6.8671   -2.2694    0.0000 O.3     1  UNL1       -0.3865
     12 O           4.2690   -0.7694    0.0000 O.3     1  UNL1       -0.3405
     13 O           7.8632    2.9688    0.0000 O.3     1  UNL1       -0.3924
     14 O          12.4412   -0.8656    0.0000 O.3     1  UNL1       -0.3841
     15 O          14.3433   -1.4836    0.0000 O.3     1  UNL1       -0.3864
     16 O          15.8296   -0.1454    0.0000 O.3     1  UNL1       -0.3865
     17 O           6.0010    1.2306    0.0000 O.3     1  UNL1       -0.3841
     18 O           4.2690    2.2306    0.0000 O.3     1  UNL1       -0.3864
     19 O           2.5369    1.2306    0.0000 O.3     1  UNL1       -0.3865
     20 O          16.3648    1.5019    0.0000 O.3     1  UNL1       -0.3924
     21 O           2.5369   -1.7694    0.0000 O.3     1  UNL1       -0.3924
     22 C          10.3312    0.7306    0.0000 C.3     1  UNL1        0.2255
     23 C          10.6402    1.6816    0.0000 C.3     1  UNL1        0.1395
     24 C           9.8312    2.2694    0.0000 C.3     1  UNL1        0.1145
     25 C           9.0222    1.6816    0.0000 C.3     1  UNL1        0.1134
     26 C           9.4651   -0.7694    0.0000 C.3     1  UNL1        0.1912
     27 C          11.2822    0.4216    0.0000 C.3     1  UNL1        0.1074
     28 C           9.4651   -1.7694    0.0000 C.3     1  UNL1        0.1342
     29 C           7.7331   -0.7694    0.0000 C.3     1  UNL1        0.1134
     30 C           8.5991   -2.2694    0.0000 C.3     1  UNL1        0.1141
     31 C           7.7331   -1.7694    0.0000 C.3     1  UNL1        0.1119
     32 C           8.0711    1.9906    0.0000 C.3     1  UNL1        0.0730
     33 C          12.9764    0.7817    0.0000 C.3     1  UNL1        0.1881
     34 C           6.8671   -0.2694    0.0000 C.3     1  UNL1        0.0796
     35 C          13.1843   -0.1965    0.0000 C.3     1  UNL1        0.1341
     36 C          14.1354   -0.5055    0.0000 C.3     1  UNL1        0.1141
     37 C          14.8785    0.1636    0.0000 C.3     1  UNL1        0.1119
     38 C          14.6706    1.1418    0.0000 C.3     1  UNL1        0.1130
     39 C           5.1350   -0.2694    0.0000 C.3     1  UNL1        0.1880
     40 C           5.1350    0.7306    0.0000 C.3     1  UNL1        0.1341
     41 C           4.2690    1.2306    0.0000 C.3     1  UNL1        0.1141
     42 C           3.4030    0.7306    0.0000 C.3     1  UNL1        0.1119
     43 C           3.4030   -0.2694    0.0000 C.3     1  UNL1        0.1130
     44 C          15.4138    1.8109    0.0000 C.3     1  UNL1        0.0730
     45 C           2.5369   -0.7694    0.0000 C.3     1  UNL1        0.0730
     46 H          11.0786    1.2432    0.0000 H       1  UNL1        0.0675
     47 H          10.3836    2.5509    0.0000 H       1  UNL1        0.0648
     48 H           8.5837    1.2432    0.0000 H       1  UNL1        0.0647
     49 H          10.0021   -1.0794    0.0000 H       1  UNL1        0.0939
     50 H          10.9911   -0.1259    0.0000 H       1  UNL1        0.0615
     51 H          11.7708    0.0399    0.0000 H       1  UNL1        0.0615
     52 H           9.4651   -2.3894    0.0000 H       1  UNL1        0.0671
     53 H           7.7331   -0.1494    0.0000 H       1  UNL1        0.0647
     54 H           8.0622   -2.5794    0.0000 H       1  UNL1        0.0648
     55 H           7.1962   -1.4594    0.0000 H       1  UNL1        0.0647
     56 H           7.4515    1.9690    0.0000 H       1  UNL1        0.0584
     57 H           7.9848    1.3767    0.0000 H       1  UNL1        0.0584
     58 H          12.8475    1.3881    0.0000 H       1  UNL1        0.0937
     59 H           7.2656    0.2055    0.0000 H       1  UNL1        0.0587
     60 H           6.4685    0.2055    0.0000 H       1  UNL1        0.0587
     61 H          12.5947   -0.0049    0.0000 H       1  UNL1        0.0671
     62 H          13.6746   -0.9204    0.0000 H       1  UNL1        0.0648
     63 H          15.0074   -0.4428    0.0000 H       1  UNL1        0.0647
     64 H          14.5417    1.7482    0.0000 H       1  UNL1        0.0647
     65 H          11.7201    2.5971    0.0000 H       1  UNL1        0.2101
     66 H           5.1350   -0.8894    0.0000 H       1  UNL1        0.0937
     67 H          10.3681    3.5794    0.0000 H       1  UNL1        0.2100
     68 H           5.1350    1.3506    0.0000 H       1  UNL1        0.0671
     69 H           3.7320    1.5406    0.0000 H       1  UNL1        0.0648
     70 H           3.9650    1.3506    0.0000 H       1  UNL1        0.0647
     71 H           3.4030   -0.8894    0.0000 H       1  UNL1        0.0647
     72 H          10.3312   -2.8894    0.0000 H       1  UNL1        0.2101
     73 H           8.0622   -3.5794    0.0000 H       1  UNL1        0.2100
     74 H           6.8671   -2.8894    0.0000 H       1  UNL1        0.2100
     75 H          15.7048    2.3584    0.0000 H       1  UNL1        0.0584
     76 H          14.9252    2.1926    0.0000 H       1  UNL1        0.0584
     77 H           7.2735    3.1604    0.0000 H       1  UNL1        0.2095
     78 H           2.3249   -0.1868    0.0000 H       1  UNL1        0.0584
     79 H           1.9264   -0.8771    0.0000 H       1  UNL1        0.0584
     80 H          12.5701   -1.4720    0.0000 H       1  UNL1        0.2101
     81 H          14.9330   -1.6752    0.0000 H       1  UNL1        0.2100
     82 H          15.9585   -0.7518    0.0000 H       1  UNL1        0.2100
     83 H           6.0010    1.8506    0.0000 H       1  UNL1        0.2101
     84 H           3.7320    2.5406    0.0000 H       1  UNL1        0.2100
     85 H           2.0000    0.9206    0.0000 H       1  UNL1        0.2100
     86 H          16.8256    1.9168    0.0000 H       1  UNL1        0.2095
     87 H           2.0000   -2.0794    0.0000 H       1  UNL1        0.2095
@<TRIPOS>BOND
     1     1    22    1
     2     1    25    1
     3    22     2    1
     4    26     2    1
     5     3    26    1
     6     3    29    1
     7     4    27    1
     8    33     4    1
     9    23     5    1
    10     5    65    1
    11    24     6    1
    12     6    67    1
    13     7    33    1
    14     7    38    1
    15     8    34    1
    16    39     8    1
    17    28     9    1
    18     9    72    1
    19    30    10    1
    20    10    73    1
    21    31    11    1
    22    11    74    1
    23    12    39    1
    24    12    43    1
    25    13    32    1
    26    13    77    1
    27    35    14    1
    28    14    80    1
    29    36    15    1
    30    15    81    1
    31    37    16    1
    32    16    82    1
    33    40    17    1
    34    17    83    1
    35    41    18    1
    36    18    84    1
    37    42    19    1
    38    19    85    1
    39    20    44    1
    40    20    86    1
    41    21    45    1
    42    21    87    1
    43    22    23    1
    44    22    27    1
    45    23    24    1
    46    23    46    1
    47    24    25    1
    48    24    47    1
    49    25    32    1
    50    25    48    1
    51    26    28    1
    52    26    49    1
    53    27    50    1
    54    27    51    1
    55    28    30    1
    56    28    52    1
    57    29    31    1
    58    29    34    1
    59    29    53    1
    60    30    31    1
    61    30    54    1
    62    31    55    1
    63    32    56    1
    64    32    57    1
    65    33    35    1
    66    33    58    1
    67    34    59    1
    68    34    60    1
    69    35    36    1
    70    35    61    1
    71    36    37    1
    72    36    62    1
    73    37    38    1
    74    37    63    1
    75    38    44    1
    76    38    64    1
    77    39    40    1
    78    39    66    1
    79    40    41    1
    80    40    68    1
    81    41    42    1
    82    41    69    1
    83    42    43    1
    84    42    70    1
    85    43    45    1
    86    43    71    1
    87    44    75    1
    88    44    76    1
    89    45    78    1
    90    45    79    1
