@<TRIPOS>MOLECULE
IMPHY008846
 54 59 0 0 0
SMALL
GASTEIGER

@<TRIPOS>ATOM
      1 O           7.0628   -1.1382    0.0000 O.3     1  UNL1       -0.2232
      2 O           9.4964   -0.4324    0.0000 O.3     1  UNL1       -0.3334
      3 O           2.5357   -5.6905    0.0000 O.3     1  UNL1       -0.2204
      4 O           2.5519   -3.5989    0.0000 O.3     1  UNL1       -0.2204
      5 O          10.7855    0.7243    0.0000 O.3     1  UNL1       -0.3257
      6 O          10.8321   -1.9210    0.0000 O.3     1  UNL1       -0.2149
      7 O          12.7891   -1.5086    0.0000 O.3     1  UNL1       -0.2174
      8 O          13.4104    0.3924    0.0000 O.3     1  UNL1       -0.2176
      9 O          11.4069    2.6254    0.0000 O.3     1  UNL1       -0.3259
     10 O          12.6960    3.7821    0.0000 O.3     1  UNL1       -0.3257
     11 O          10.0712    4.1140    0.0000 O.3     1  UNL1       -0.2149
     12 O          10.6925    6.0150    0.0000 O.3     1  UNL1       -0.2174
     13 O          12.6495    6.4274    0.0000 O.3     1  UNL1       -0.2176
     14 C           7.0628   -4.1382    0.0000 C.3     1  UNL1        0.0002
     15 C           7.9288   -3.6382    0.0000 C.3     1  UNL1        0.0024
     16 C           6.1968   -3.6382    0.0000 C.3     1  UNL1        0.0026
     17 C           5.2868   -4.1450    0.0000 C.3     1  UNL1        0.0027
     18 C           7.9288   -2.6382    0.0000 C.3     1  UNL1        0.0327
     19 C           5.2787   -5.1866    0.0000 C.3     1  UNL1        0.0025
     20 C           7.0789   -5.1797    0.0000 C.3     1  UNL1        0.0000
     21 C           8.8750   -2.3335    0.0000 C.3     1  UNL1        0.0275
     22 C           6.1968   -2.6382    0.0000 C.3     1  UNL1        0.0329
     23 C           7.0628   -2.1382    0.0000 C.3     1  UNL1        0.1520
     24 C           8.8750   -3.9429    0.0000 C.3     1  UNL1        0.0002
     25 C           6.1808   -5.7075    0.0000 C.3     1  UNL1        0.0001
     26 C           4.3433   -5.7364    0.0000 C.3     1  UNL1        0.0307
     27 C           9.4586   -3.1382    0.0000 C.3     1  UNL1        0.0024
     28 C           4.3599   -3.5810    0.0000 C.3     1  UNL1        0.0355
     29 C           7.7056   -4.9042    0.0000 C.3     1  UNL1        0.0000
     30 C           8.2709   -4.5779    0.0000 C.3     1  UNL1        0.0001
     31 C           5.2945   -3.1451    0.0000 C.3     1  UNL1        0.0001
     32 C           9.1857   -1.3829    0.0000 C.3     1  UNL1        0.0957
     33 C           3.4037   -5.1939    0.0000 C.3     1  UNL1        0.1819
     34 C           3.4120   -4.1089    0.0000 C.3     1  UNL1        0.1821
     35 C           4.8467   -6.6005    0.0000 C.3     1  UNL1        0.0026
     36 C           3.8467   -6.6043    0.0000 C.3     1  UNL1        0.0026
     37 C          10.1362   -1.6936    0.0000 C.3     1  UNL1        0.0319
     38 C           8.2352   -1.0723    0.0000 C.3     1  UNL1        0.0297
     39 C          10.3424   -2.6721    0.0000 C.3     1  UNL1        0.0278
     40 C          10.4749   -0.2262    0.0000 C.3     1  UNL1        0.2693
     41 C          11.1427   -0.9705    0.0000 C.3     1  UNL1        0.2406
     42 C          11.2930   -2.9828    0.0000 C.2     1  UNL1       -0.0345
     43 C          12.1212   -0.7643    0.0000 C.3     1  UNL1        0.2198
     44 C          11.7640    0.9305    0.0000 C.3     1  UNL1        0.1802
     45 C          12.4319    0.1862    0.0000 C.3     1  UNL1        0.2143
     46 C          11.4992   -3.9613    0.0000 C.2     1  UNL1       -0.0478
     47 C          12.0747    1.8810    0.0000 C.3     1  UNL1        0.1770
     48 C          10.7549   -4.6291    0.0000 C.3     1  UNL1        0.0260
     49 C          12.4497   -4.2719    0.0000 C.3     1  UNL1        0.0260
     50 C          11.7175    3.5759    0.0000 C.3     1  UNL1        0.2695
     51 C          11.0497    4.3202    0.0000 C.3     1  UNL1        0.2406
     52 C          11.3603    5.2707    0.0000 C.3     1  UNL1        0.2198
     53 C          13.0067    4.7326    0.0000 C.3     1  UNL1        0.1803
     54 C          12.3388    5.4769    0.0000 C.3     1  UNL1        0.2143
@<TRIPOS>BOND
     1     1    23    1
     2     2    32    1
     3     3    33    1
     4     4    34    1
     5     5    40    1
     6     5    44    1
     7     9    47    1
     8    10    50    1
     9    10    53    1
    10    14    15    1
    11    14    16    1
    12    14    20    1
    13    14    29    1
    14    15    18    1
    15    15    24    1
    16    15    30    1
    17    16    17    1
    18    16    22    1
    19    17    19    1
    20    17    28    1
    21    17    31    1
    22    18    21    1
    23    18    23    1
    24    19    25    1
    25    19    26    1
    26    20    25    1
    27    21    27    1
    28    21    32    1
    29    22    23    1
    30    24    27    1
    31    26    33    1
    32    26    35    1
    33    26    36    1
    34    28    34    1
    35    32    37    1
    36    32    38    1
    37    33    34    1
    38    37    39    1
    39    39    42    1
    40    40     2    1
    41    40    41    1
    42    41     6    1
    43    41    43    1
    44    42    46    2
    45    43     7    1
    46    43    45    1
    47    44    45    1
    48    44    47    1
    49    45     8    1
    50    46    48    1
    51    46    49    1
    52    50     9    1
    53    50    51    1
    54    51    11    1
    55    51    52    1
    56    52    12    1
    57    52    54    1
    58    53    54    1
    59    54    13    1
