@<TRIPOS>MOLECULE
IMPHY017931
 16 17 0 0 0
SMALL
GASTEIGER

@<TRIPOS>ATOM
      1 C          61.0897  -93.6250    0.0000 C.3     1  UNL1        0.0006
      2 C          61.0897 -103.6250    0.0000 C.3     1  UNL1        0.0040
      3 C          69.7500 -108.6250    0.0000 C.3     1  UNL1        0.0183
      4 C          78.4102 -103.6250    0.0000 C.2     1  UNL1       -0.0451
      5 C          78.4102  -93.6250    0.0000 C.3     1  UNL1        0.0192
      6 C          69.7500  -88.6250    0.0000 C.3     1  UNL1        0.0041
      7 C          87.0705 -108.6250    0.0000 C.2     1  UNL1       -0.0108
      8 C          95.7308 -103.6250    0.0000 C.2     1  UNL1        0.0002
      9 C          95.7308  -93.6250    0.0000 C.2     1  UNL1       -0.0278
     10 C          87.0705  -88.6250    0.0000 C.3     1  UNL1        0.0295
     11 C         104.3910 -108.6250    0.0000 C.3     1  UNL1        0.1451
     12 C         104.3910 -118.6250    0.0000 C.3     1  UNL1        0.0375
     13 O         113.0513 -113.6250    0.0000 O.3     1  UNL1       -0.2212
     14 C         113.0513 -103.6250    0.0000 C.3     1  UNL1        0.0375
     15 C          78.4102  -83.6250    0.0000 C.3     1  UNL1        0.0044
     16 C          69.7500 -118.6250    0.0000 C.3     1  UNL1        0.0043
@<TRIPOS>BOND
     1     1     2    1
     2     2     3    1
     3     3     4    1
     4     3    16    1
     5     4     5    1
     6     4     7    2
     7     5     6    1
     8     5    15    1
     9     6     1    1
    10     7     8    1
    11     8     9    2
    12     8    11    1
    13     9    10    1
    14    10     5    1
    15    11    12    1
    16    11    13    1
    17    11    14    1
