@<TRIPOS>MOLECULE
IMPHY015966
 27 27 0 0 0
SMALL
GASTEIGER

@<TRIPOS>ATOM
      1 O           2.5000   -1.5306    0.0000 O.2     1  UNL1       -0.3007
      2 C           4.8660   -0.1645    0.0000 C.3     1  UNL1       -0.0182
      3 C           4.0000    0.3355    0.0000 C.3     1  UNL1       -0.0071
      4 C           4.0000   -0.6645    0.0000 C.3     1  UNL1        0.0269
      5 C           5.3660   -1.0306    0.0000 C.3     1  UNL1       -0.0586
      6 C           5.3660    0.7015    0.0000 C.3     1  UNL1       -0.0586
      7 C           3.5000    1.2015    0.0000 C.2     1  UNL1       -0.0810
      8 C           3.5000   -1.5306    0.0000 C.2     1  UNL1        0.1245
      9 C           2.5000    1.2015    0.0000 C.2     1  UNL1       -0.0793
     10 C           2.0000    2.0675    0.0000 C.3     1  UNL1       -0.0440
     11 C           2.0000    0.3355    0.0000 C.3     1  UNL1       -0.0440
     12 H           3.4011    0.1750    0.0000 H       1  UNL1        0.0355
     13 H           3.4011   -0.5041    0.0000 H       1  UNL1        0.0386
     14 H           4.8291   -1.3406    0.0000 H       1  UNL1        0.0235
     15 H           5.6760   -1.5675    0.0000 H       1  UNL1        0.0235
     16 H           5.9030   -0.7206    0.0000 H       1  UNL1        0.0235
     17 H           5.9030    0.3915    0.0000 H       1  UNL1        0.0235
     18 H           5.6760    1.2384    0.0000 H       1  UNL1        0.0235
     19 H           4.8291    1.0115    0.0000 H       1  UNL1        0.0235
     20 H           3.8100    1.7384    0.0000 H       1  UNL1        0.0575
     21 H           3.8100   -2.0675    0.0000 H       1  UNL1        0.1029
     22 H           2.5369    2.3775    0.0000 H       1  UNL1        0.0274
     23 H           1.6900    2.6044    0.0000 H       1  UNL1        0.0274
     24 H           1.4631    1.7575    0.0000 H       1  UNL1        0.0274
     25 H           1.4631    0.6455    0.0000 H       1  UNL1        0.0274
     26 H           1.6900   -0.2015    0.0000 H       1  UNL1        0.0274
     27 H           2.5369    0.0255    0.0000 H       1  UNL1        0.0274
@<TRIPOS>BOND
     1     1     8    2
     2     2     3    1
     3     2     4    1
     4     2     5    1
     5     2     6    1
     6     3     4    1
     7     3     7    1
     8     3    12    1
     9     4     8    1
    10     4    13    1
    11     5    14    1
    12     5    15    1
    13     5    16    1
    14     6    17    1
    15     6    18    1
    16     6    19    1
    17     7     9    2
    18     7    20    1
    19     8    21    1
    20     9    10    1
    21     9    11    1
    22    10    22    1
    23    10    23    1
    24    10    24    1
    25    11    25    1
    26    11    26    1
    27    11    27    1
