@<TRIPOS>MOLECULE
IMPHY000763
 82 86 0 0 0
SMALL
GASTEIGER

@<TRIPOS>ATOM
      1 O           2.5357   -3.3545    0.0000 O.3     1  UNL1       -0.3912
      2 O           7.9891    3.6775    0.0000 O.3     1  UNL1       -0.3907
      3 C           7.0628   -1.8022    0.0000 C.3     1  UNL1       -0.0231
      4 C           7.9288   -1.3022    0.0000 C.3     1  UNL1       -0.0233
      5 C           6.1968   -1.3022    0.0000 C.3     1  UNL1       -0.0294
      6 C           7.9288   -0.3022    0.0000 C.3     1  UNL1       -0.0312
      7 C           5.2868   -1.8090    0.0000 C.3     1  UNL1       -0.0252
      8 C           8.8228    0.2325    0.0000 C.3     1  UNL1       -0.0257
      9 C           9.7288   -0.2814    0.0000 C.3     1  UNL1       -0.0284
     10 C           5.2787   -2.8506    0.0000 C.3     1  UNL1       -0.0278
     11 C           8.8228   -1.8369    0.0000 C.3     1  UNL1       -0.0464
     12 C           7.0789   -2.8437    0.0000 C.3     1  UNL1       -0.0466
     13 C           6.1968   -0.3022    0.0000 C.3     1  UNL1       -0.0489
     14 C           7.0628    0.1978    0.0000 C.3     1  UNL1       -0.0491
     15 C           9.7288   -1.3230    0.0000 C.3     1  UNL1       -0.0468
     16 C           6.1808   -3.3715    0.0000 C.3     1  UNL1       -0.0486
     17 C           9.0329    1.2464    0.0000 C.3     1  UNL1       -0.0144
     18 C           4.3433   -3.4004    0.0000 C.3     1  UNL1       -0.0056
     19 C           4.3599   -1.2450    0.0000 C.3     1  UNL1       -0.0447
     20 C           7.7056   -2.5682    0.0000 C.3     1  UNL1       -0.0588
     21 C           8.2709   -2.2419    0.0000 C.3     1  UNL1       -0.0588
     22 C          10.4911    0.4194    0.0000 C.3     1  UNL1       -0.0468
     23 C          10.0619    1.3617    0.0000 C.3     1  UNL1       -0.0457
     24 C           5.2945   -0.8091    0.0000 C.3     1  UNL1       -0.0590
     25 C           3.4037   -2.8579    0.0000 C.3     1  UNL1        0.0606
     26 C           3.4120   -1.7729    0.0000 C.3     1  UNL1       -0.0258
     27 C          10.5987   -0.7747    0.0000 C.3     1  UNL1       -0.0593
     28 C           8.3593    1.9855    0.0000 C.2     1  UNL1       -0.0482
     29 C           3.8467   -4.2683    0.0000 C.3     1  UNL1       -0.0572
     30 C           4.8466   -4.2645    0.0000 C.3     1  UNL1       -0.0572
     31 C           8.6626    2.9384    0.0000 C.3     1  UNL1        0.0653
     32 C           7.3824    1.7718    0.0000 C.2     1  UNL1       -0.0970
     33 H           6.9329   -0.8772    0.0000 H       1  UNL1        0.0312
     34 H           7.9223    0.5478    0.0000 H       1  UNL1        0.0309
     35 H           8.1300    0.7250    0.0000 H       1  UNL1        0.0315
     36 H           5.2820   -3.7006    0.0000 H       1  UNL1        0.0312
     37 H           8.4182   -2.3066    0.0000 H       1  UNL1        0.0271
     38 H           9.2164   -2.3159    0.0000 H       1  UNL1        0.0271
     39 H           7.2969   -3.4241    0.0000 H       1  UNL1        0.0271
     40 H           7.6880   -2.7282    0.0000 H       1  UNL1        0.0271
     41 H           5.9847    0.2804    0.0000 H       1  UNL1        0.0268
     42 H           5.5862   -0.4099    0.0000 H       1  UNL1        0.0268
     43 H           7.4613    0.6727    0.0000 H       1  UNL1        0.0268
     44 H           6.6643    0.6727    0.0000 H       1  UNL1        0.0268
     45 H           9.9379   -1.9067    0.0000 H       1  UNL1        0.0271
     46 H          10.3397   -1.2169    0.0000 H       1  UNL1        0.0271
     47 H           5.7835   -3.8474    0.0000 H       1  UNL1        0.0268
     48 H           6.5818   -3.8444    0.0000 H       1  UNL1        0.0268
     49 H           9.2513    1.8266    0.0000 H       1  UNL1        0.0349
     50 H           4.7681   -0.7783    0.0000 H       1  UNL1        0.0271
     51 H           3.9700   -0.7629    0.0000 H       1  UNL1        0.0271
     52 H           7.2306   -2.9668    0.0000 H       1  UNL1        0.0235
     53 H           8.1041   -3.0432    0.0000 H       1  UNL1        0.0235
     54 H           8.1805   -2.1697    0.0000 H       1  UNL1        0.0235
     55 H           7.6884   -2.4540    0.0000 H       1  UNL1        0.0235
     56 H           8.4830   -2.8244    0.0000 H       1  UNL1        0.0235
     57 H           8.8535   -2.0298    0.0000 H       1  UNL1        0.0235
     58 H          10.8604   -0.0787    0.0000 H       1  UNL1        0.0271
     59 H          11.0252    0.7343    0.0000 H       1  UNL1        0.0271
     60 H          10.6500    1.5580    0.0000 H       1  UNL1        0.0271
     61 H           9.9285    1.9671    0.0000 H       1  UNL1        0.0271
     62 H           5.9145   -0.8139    0.0000 H       1  UNL1        0.0235
     63 H           5.2993   -0.1891    0.0000 H       1  UNL1        0.0235
     64 H           4.6745   -0.8043    0.0000 H       1  UNL1        0.0235
     65 H           3.4025   -3.4779    0.0000 H       1  UNL1        0.0599
     66 H           3.2075   -1.1876    0.0000 H       1  UNL1        0.0290
     67 H           2.8004   -1.8743    0.0000 H       1  UNL1        0.0290
     68 H          10.2928   -1.3140    0.0000 H       1  UNL1        0.0235
     69 H          11.1380   -1.0805    0.0000 H       1  UNL1        0.0235
     70 H          10.9045   -0.2354    0.0000 H       1  UNL1        0.0235
     71 H           4.3109   -4.5765    0.0000 H       1  UNL1        0.0236
     72 H           3.3085   -3.9604    0.0000 H       1  UNL1        0.0236
     73 H           5.1587   -4.8002    0.0000 H       1  UNL1        0.0236
     74 H           5.3824   -3.9524    0.0000 H       1  UNL1        0.0236
     75 H           3.5387   -4.8064    0.0000 H       1  UNL1        0.0236
     76 H           4.3848   -4.5762    0.0000 H       1  UNL1        0.0236
     77 H           2.0000   -3.0425    0.0000 H       1  UNL1        0.2098
     78 H           9.2118    2.6506    0.0000 H       1  UNL1        0.0604
     79 H           9.0414    3.4292    0.0000 H       1  UNL1        0.0604
     80 H           6.9648    2.2300    0.0000 H       1  UNL1        0.0535
     81 H           7.1944    1.1810    0.0000 H       1  UNL1        0.0535
     82 H           8.1771    4.2683    0.0000 H       1  UNL1        0.2098
@<TRIPOS>BOND
     1    25     1    1
     2     1    77    1
     3     2    31    1
     4     2    82    1
     5     3     4    1
     6     3     5    1
     7     3    12    1
     8     3    20    1
     9     4     6    1
    10     4    11    1
    11     4    21    1
    12     5     7    1
    13     5    13    1
    14     5    33    1
    15     6     8    1
    16     6    14    1
    17     6    34    1
    18     7    10    1
    19     7    19    1
    20     7    24    1
    21     8     9    1
    22     8    17    1
    23     8    35    1
    24     9    15    1
    25     9    22    1
    26     9    27    1
    27    10    16    1
    28    10    18    1
    29    10    36    1
    30    11    15    1
    31    11    37    1
    32    11    38    1
    33    12    16    1
    34    12    39    1
    35    12    40    1
    36    13    14    1
    37    13    41    1
    38    13    42    1
    39    14    43    1
    40    14    44    1
    41    15    45    1
    42    15    46    1
    43    16    47    1
    44    16    48    1
    45    17    23    1
    46    17    28    1
    47    17    49    1
    48    18    25    1
    49    18    29    1
    50    18    30    1
    51    19    26    1
    52    19    50    1
    53    19    51    1
    54    20    52    1
    55    20    53    1
    56    20    54    1
    57    21    55    1
    58    21    56    1
    59    21    57    1
    60    22    23    1
    61    22    58    1
    62    22    59    1
    63    23    60    1
    64    23    61    1
    65    24    62    1
    66    24    63    1
    67    24    64    1
    68    25    26    1
    69    25    65    1
    70    26    66    1
    71    26    67    1
    72    27    68    1
    73    27    69    1
    74    27    70    1
    75    28    31    1
    76    28    32    2
    77    29    72    1
    78    29    75    1
    79    29    76    1
    80    30    71    1
    81    30    73    1
    82    30    74    1
    83    31    78    1
    84    31    79    1
    85    32    80    1
    86    32    81    1
