@<TRIPOS>MOLECULE
IMPHY005395
 118 124 0 0 0
SMALL
GASTEIGER

@<TRIPOS>ATOM
      1 O           7.3531   -1.8920    0.0000 O.3     1  UNL1       -0.3449
      2 O           9.1069    7.3874    0.0000 O.3     1  UNL1       -0.4802
      3 O           9.9902    5.8975    0.0000 O.2     1  UNL1       -0.2504
      4 O           5.6210   -1.8920    0.0000 O.3     1  UNL1       -0.3315
      5 O           7.3531   -3.8920    0.0000 O.3     1  UNL1       -0.3841
      6 O           5.6210   -4.8920    0.0000 O.3     1  UNL1       -0.3864
      7 O           3.8890   -3.8920    0.0000 O.3     1  UNL1       -0.3396
      8 O           3.8890   -0.8920    0.0000 O.3     1  UNL1       -0.4788
      9 O           3.0229   -2.3920    0.0000 O.2     1  UNL1       -0.2480
     10 O           4.6980   -5.4798    0.0000 O.3     1  UNL1       -0.3405
     11 O           2.1289   -5.1708    0.0000 O.3     1  UNL1       -0.3841
     12 O           2.8012   -7.2399    0.0000 O.3     1  UNL1       -0.3864
     13 O           5.9713   -7.1353    0.0000 O.3     1  UNL1       -0.3924
     14 C           8.2541    2.8082    0.0000 C.3     1  UNL1       -0.0194
     15 C           7.3900    2.3049    0.0000 C.3     1  UNL1       -0.0257
     16 C           7.3780    1.2633    0.0000 C.3     1  UNL1       -0.0250
     17 C           8.2503    3.8082    0.0000 C.3     1  UNL1       -0.0051
     18 C           8.2781    0.7390    0.0000 C.3     1  UNL1       -0.0278
     19 C           9.1661    2.3049    0.0000 C.3     1  UNL1       -0.0463
     20 C           8.2906   -0.3459    0.0000 C.3     1  UNL1       -0.0052
     21 C           9.1781    1.2633    0.0000 C.3     1  UNL1       -0.0486
     22 C           7.3823    4.3049    0.0000 C.2     1  UNL1       -0.0629
     23 C           6.5221    2.8015    0.0000 C.3     1  UNL1       -0.0306
     24 C           6.4281    0.7390    0.0000 C.3     1  UNL1       -0.0447
     25 C           7.3623    5.3463    0.0000 C.3     1  UNL1       -0.0031
     26 C           9.1583    4.3186    0.0000 C.3     1  UNL1       -0.0424
     27 C           8.2583    5.8775    0.0000 C.3     1  UNL1        0.0741
     28 C           9.2383    2.9857    0.0000 C.3     1  UNL1       -0.0585
     29 C           7.3531   -0.8920    0.0000 C.3     1  UNL1        0.0672
     30 C           9.1623    5.3602    0.0000 C.3     1  UNL1       -0.0359
     31 C           6.5139    1.7667    0.0000 C.3     1  UNL1       -0.0590
     32 C           6.4156   -0.3459    0.0000 C.3     1  UNL1       -0.0255
     33 C           6.5182    3.8015    0.0000 C.2     1  UNL1       -0.0836
     34 C           9.2358    3.6384    0.0000 C.3     1  UNL1       -0.0553
     35 C           6.4083    5.8633    0.0000 C.3     1  UNL1       -0.0403
     36 C           8.2624    6.9625    0.0000 C.3     1  UNL1       -0.0362
     37 C           6.3874    6.9480    0.0000 C.3     1  UNL1       -0.0343
     38 C           9.2906   -0.3382    0.0000 C.3     1  UNL1       -0.0572
     39 C           8.7973   -1.2080    0.0000 C.3     1  UNL1       -0.0572
     40 C           7.3207    7.5014    0.0000 C.3     1  UNL1       -0.0468
     41 C           9.1184    6.3875    0.0000 C.2     1  UNL1        0.3115
     42 C           5.8741    7.8063    0.0000 C.3     1  UNL1       -0.0598
     43 C           5.3876    6.9326    0.0000 C.3     1  UNL1       -0.0598
     44 C           6.4871   -2.3920    0.0000 C.3     1  UNL1        0.1888
     45 C           6.4871   -3.3920    0.0000 C.3     1  UNL1        0.1342
     46 C           5.6210   -3.8920    0.0000 C.3     1  UNL1        0.1149
     47 C           4.7550   -2.3920    0.0000 C.3     1  UNL1        0.1863
     48 C           4.7550   -3.3920    0.0000 C.3     1  UNL1        0.1267
     49 C           3.8890   -1.8920    0.0000 C.2     1  UNL1        0.3367
     50 C           3.8890   -4.8920    0.0000 C.3     1  UNL1        0.1885
     51 C           3.0800   -5.4798    0.0000 C.3     1  UNL1        0.1341
     52 C           3.3890   -6.4309    0.0000 C.3     1  UNL1        0.1141
     53 C           4.3890   -6.4309    0.0000 C.3     1  UNL1        0.1131
     54 C           4.9768   -7.2399    0.0000 C.3     1  UNL1        0.0730
     55 H           8.1245    1.8770    0.0000 H       1  UNL1        0.0315
     56 H           9.0174    0.3197    0.0000 H       1  UNL1        0.0312
     57 H           9.7781    2.2059    0.0000 H       1  UNL1        0.0271
     58 H           9.3684    2.8910    0.0000 H       1  UNL1        0.0271
     59 H           9.3939    0.6821    0.0000 H       1  UNL1        0.0268
     60 H           9.7877    1.3765    0.0000 H       1  UNL1        0.0268
     61 H           5.9111    2.9068    0.0000 H       1  UNL1        0.0310
     62 H           6.3123    2.2181    0.0000 H       1  UNL1        0.0310
     63 H           6.2258    1.3251    0.0000 H       1  UNL1        0.0271
     64 H           5.8160    0.6400    0.0000 H       1  UNL1        0.0271
     65 H           6.6362    4.9044    0.0000 H       1  UNL1        0.0357
     66 H           9.3651    3.7341    0.0000 H       1  UNL1        0.0274
     67 H           9.7696    4.4223    0.0000 H       1  UNL1        0.0274
     68 H           9.3483    2.3755    0.0000 H       1  UNL1        0.0235
     69 H           9.8484    3.0957    0.0000 H       1  UNL1        0.0235
     70 H           9.1283    3.5958    0.0000 H       1  UNL1        0.0235
     71 H           7.8906   -1.2010    0.0000 H       1  UNL1        0.0602
     72 H           9.7728    5.2517    0.0000 H       1  UNL1        0.0276
     73 H           9.3736    5.9431    0.0000 H       1  UNL1        0.0276
     74 H           6.8260    2.3024    0.0000 H       1  UNL1        0.0235
     75 H           5.9782    2.0787    0.0000 H       1  UNL1        0.0235
     76 H           6.2018    1.2309    0.0000 H       1  UNL1        0.0235
     77 H           5.8060   -0.2327    0.0000 H       1  UNL1        0.0290
     78 H           6.1998   -0.9271    0.0000 H       1  UNL1        0.0290
     79 H           5.9801    4.1095    0.0000 H       1  UNL1        0.0572
     80 H           9.1304    3.0274    0.0000 H       1  UNL1        0.0238
     81 H           9.8468    3.5330    0.0000 H       1  UNL1        0.0238
     82 H           9.3411    4.2494    0.0000 H       1  UNL1        0.0238
     83 H           5.7956    5.9576    0.0000 H       1  UNL1        0.0276
     84 H           6.2106    5.2756    0.0000 H       1  UNL1        0.0276
     85 H           8.8729    6.8541    0.0000 H       1  UNL1        0.0276
     86 H           8.4738    7.5454    0.0000 H       1  UNL1        0.0276
     87 H           8.2628   -1.5222    0.0000 H       1  UNL1        0.0236
     88 H           9.1114   -1.7426    0.0000 H       1  UNL1        0.0236
     89 H           9.3318   -0.8939    0.0000 H       1  UNL1        0.0236
     90 H           9.2954   -0.9582    0.0000 H       1  UNL1        0.0236
     91 H           9.9106   -0.3334    0.0000 H       1  UNL1        0.0236
     92 H           9.2858    0.2818    0.0000 H       1  UNL1        0.0236
     93 H           7.7162    7.9789    0.0000 H       1  UNL1        0.0271
     94 H           6.9179    7.9727    0.0000 H       1  UNL1        0.0271
     95 H           5.3780    7.5526    0.0000 H       1  UNL1        0.0235
     96 H           6.4062    8.1245    0.0000 H       1  UNL1        0.0235
     97 H           5.5559    8.3384    0.0000 H       1  UNL1        0.0235
     98 H           5.3421    7.4880    0.0000 H       1  UNL1        0.0235
     99 H           4.7676    6.9231    0.0000 H       1  UNL1        0.0235
    100 H           5.3971    6.3127    0.0000 H       1  UNL1        0.0235
    101 H           6.4871   -1.7720    0.0000 H       1  UNL1        0.0938
    102 H           9.6402    7.7036    0.0000 H       1  UNL1        0.2951
    103 H           7.0240   -3.0820    0.0000 H       1  UNL1        0.0671
    104 H           5.0841   -4.2020    0.0000 H       1  UNL1        0.0648
    105 H           4.7550   -1.7720    0.0000 H       1  UNL1        0.0742
    106 H           4.2181   -3.0820    0.0000 H       1  UNL1        0.0655
    107 H           7.8900   -3.5820    0.0000 H       1  UNL1        0.2101
    108 H           6.1580   -5.2020    0.0000 H       1  UNL1        0.2100
    109 H           3.3366   -4.6105    0.0000 H       1  UNL1        0.0938
    110 H           2.9830   -4.8674    0.0000 H       1  UNL1        0.0671
    111 H           3.3520   -0.5820    0.0000 H       1  UNL1        0.2951
    112 H           2.7766   -6.3339    0.0000 H       1  UNL1        0.0648
    113 H           5.0014   -6.3339    0.0000 H       1  UNL1        0.0647
    114 H           2.0000   -4.5643    0.0000 H       1  UNL1        0.2101
    115 H           4.4195   -7.5116    0.0000 H       1  UNL1        0.0584
    116 H           5.1477   -7.8358    0.0000 H       1  UNL1        0.0584
    117 H           3.0534   -7.8063    0.0000 H       1  UNL1        0.2100
    118 H           6.3357   -7.6369    0.0000 H       1  UNL1        0.2095
@<TRIPOS>BOND
     1    29     1    1
     2    44     1    1
     3     2    41    1
     4     2   102    1
     5     3    41    2
     6     4    44    1
     7     4    47    1
     8    45     5    1
     9     5   107    1
    10    46     6    1
    11     6   108    1
    12    48     7    1
    13    50     7    1
    14     8    49    1
    15     8   111    1
    16     9    49    2
    17    10    50    1
    18    10    53    1
    19    51    11    1
    20    11   114    1
    21    52    12    1
    22    12   117    1
    23    13    54    1
    24    13   118    1
    25    14    15    1
    26    14    17    1
    27    14    19    1
    28    14    28    1
    29    15    16    1
    30    15    23    1
    31    15    55    1
    32    16    18    1
    33    16    24    1
    34    16    31    1
    35    17    22    1
    36    17    26    1
    37    17    34    1
    38    18    20    1
    39    18    21    1
    40    18    56    1
    41    19    21    1
    42    19    57    1
    43    19    58    1
    44    20    29    1
    45    20    38    1
    46    20    39    1
    47    21    59    1
    48    21    60    1
    49    22    25    1
    50    22    33    2
    51    23    33    1
    52    23    61    1
    53    23    62    1
    54    24    32    1
    55    24    63    1
    56    24    64    1
    57    25    27    1
    58    25    35    1
    59    25    65    1
    60    26    30    1
    61    26    66    1
    62    26    67    1
    63    27    30    1
    64    27    36    1
    65    27    41    1
    66    28    68    1
    67    28    69    1
    68    28    70    1
    69    29    32    1
    70    29    71    1
    71    30    72    1
    72    30    73    1
    73    31    74    1
    74    31    75    1
    75    31    76    1
    76    32    77    1
    77    32    78    1
    78    33    79    1
    79    34    80    1
    80    34    81    1
    81    34    82    1
    82    35    37    1
    83    35    83    1
    84    35    84    1
    85    36    40    1
    86    36    85    1
    87    36    86    1
    88    37    40    1
    89    37    42    1
    90    37    43    1
    91    38    90    1
    92    38    91    1
    93    38    92    1
    94    39    87    1
    95    39    88    1
    96    39    89    1
    97    40    93    1
    98    40    94    1
    99    42    96    1
   100    42    97    1
   101    42    98    1
   102    43    95    1
   103    43    99    1
   104    43   100    1
   105    44    45    1
   106    44   101    1
   107    45    46    1
   108    45   103    1
   109    46    48    1
   110    46   104    1
   111    47    48    1
   112    47    49    1
   113    47   105    1
   114    48   106    1
   115    50    51    1
   116    50   109    1
   117    51    52    1
   118    51   110    1
   119    52    53    1
   120    52   112    1
   121    53    54    1
   122    53   113    1
   123    54   115    1
   124    54   116    1
