@<TRIPOS>MOLECULE
IMPHY017089
 29 29 0 0 0
SMALL
GASTEIGER

@<TRIPOS>ATOM
      1 O           4.5032   -0.2020    0.0000 O.3     1  UNL1       -0.3662
      2 C           3.6942    0.3858    0.0000 C.3     1  UNL1        0.0622
      3 C           5.3122    0.3858    0.0000 C.3     1  UNL1        0.0850
      4 C           4.0032    1.3368    0.0000 C.3     1  UNL1       -0.0234
      5 C           5.0032    1.3368    0.0000 C.3     1  UNL1       -0.0180
      6 C           2.7431    0.0767    0.0000 C.3     1  UNL1       -0.0203
      7 C           6.2633    0.6948    0.0000 C.3     1  UNL1       -0.0322
      8 C           5.9000   -0.4233    0.0000 C.2     1  UNL1       -0.0600
      9 C           2.0000    0.7459    0.0000 C.3     1  UNL1       -0.0603
     10 C           2.5352   -0.9014    0.0000 C.3     1  UNL1       -0.0603
     11 C           5.4933   -1.3368    0.0000 C.2     1  UNL1       -0.1000
     12 H           4.2839    0.5773    0.0000 H       1  UNL1        0.0599
     13 H           4.0680    1.9534    0.0000 H       1  UNL1        0.0291
     14 H           3.3968    1.4657    0.0000 H       1  UNL1        0.0291
     15 H           5.6097    1.4657    0.0000 H       1  UNL1        0.0297
     16 H           4.9384    1.9534    0.0000 H       1  UNL1        0.0297
     17 H           3.2039   -0.3381    0.0000 H       1  UNL1        0.0320
     18 H           6.4549    0.1051    0.0000 H       1  UNL1        0.0260
     19 H           6.8530    0.8864    0.0000 H       1  UNL1        0.0260
     20 H           6.0717    1.2844    0.0000 H       1  UNL1        0.0260
     21 H           6.5166   -0.3585    0.0000 H       1  UNL1        0.0594
     22 H           2.4149    1.2066    0.0000 H       1  UNL1        0.0233
     23 H           1.5392    1.1607    0.0000 H       1  UNL1        0.0233
     24 H           1.5851    0.2851    0.0000 H       1  UNL1        0.0233
     25 H           1.9288   -0.7725    0.0000 H       1  UNL1        0.0233
     26 H           2.4063   -1.5079    0.0000 H       1  UNL1        0.0233
     27 H           3.1417   -1.0303    0.0000 H       1  UNL1        0.0233
     28 H           4.8767   -1.4016    0.0000 H       1  UNL1        0.0533
     29 H           5.8577   -1.8384    0.0000 H       1  UNL1        0.0533
@<TRIPOS>BOND
     1     1     2    1
     2     1     3    1
     3     2     4    1
     4     2     6    1
     5     2    12    1
     6     3     5    1
     7     3     7    1
     8     3     8    1
     9     4     5    1
    10     4    13    1
    11     4    14    1
    12     5    15    1
    13     5    16    1
    14     6     9    1
    15     6    10    1
    16     6    17    1
    17     7    18    1
    18     7    19    1
    19     7    20    1
    20     8    11    2
    21     8    21    1
    22     9    22    1
    23     9    23    1
    24     9    24    1
    25    10    25    1
    26    10    26    1
    27    10    27    1
    28    11    28    1
    29    11    29    1
