@<TRIPOS>MOLECULE
IMPHY016457
 13 13 0 0 0
SMALL
GASTEIGER

@<TRIPOS>ATOM
      1 O           3.7601   -0.7694    0.0000 O.3     1  UNL1       -0.4544
      2 O           2.0000   -0.4907    0.0000 O.2     1  UNL1       -0.2456
      3 C           4.5691   -0.1816    0.0000 C.3     1  UNL1        0.1193
      4 C           4.2601    0.7694    0.0000 C.2     1  UNL1       -0.0375
      5 C           5.5202   -0.4907    0.0000 C.3     1  UNL1       -0.0240
      6 C           3.2601    0.7694    0.0000 C.2     1  UNL1        0.0220
      7 C           2.9511   -0.1816    0.0000 C.2     1  UNL1        0.3323
      8 H           4.6661   -0.7940    0.0000 H       1  UNL1        0.0776
      9 H           4.6245    1.2710    0.0000 H       1  UNL1        0.0610
     10 H           5.3286   -1.0803    0.0000 H       1  UNL1        0.0268
     11 H           6.1098   -0.6822    0.0000 H       1  UNL1        0.0268
     12 H           5.7117    0.0990    0.0000 H       1  UNL1        0.0268
     13 H           2.8956    1.2710    0.0000 H       1  UNL1        0.0687
@<TRIPOS>BOND
     1     1     3    1
     2     1     7    1
     3     2     7    2
     4     3     4    1
     5     3     5    1
     6     3     8    1
     7     4     6    2
     8     4     9    1
     9     5    10    1
    10     5    11    1
    11     5    12    1
    12     6     7    1
    13     6    13    1
