@<TRIPOS>MOLECULE
IMPHY014171
 48 52 0 0 0
SMALL
GASTEIGER

@<TRIPOS>ATOM
      1 O           6.3002   -1.1621    0.0000 O.3     1  UNL1       -0.4568
      2 O           8.0819   -0.1517    0.0000 O.3     1  UNL1       -0.4536
      3 O           3.4519   -2.7090    0.0000 O.3     1  UNL1       -0.4526
      4 O           2.0000   -1.8708    0.0000 O.3     1  UNL1       -0.4526
      5 O           8.0321   -1.1821    0.0000 O.2     1  UNL1       -0.2512
      6 O           8.9537    1.3450    0.0000 O.2     1  UNL1       -0.2511
      7 N           4.5518    1.8725    0.0000 N.3     1  UNL1       -0.2906
      8 C           5.4178    1.3725    0.0000 C.3     1  UNL1        0.0425
      9 C           5.4178    0.3725    0.0000 C.3     1  UNL1        0.0448
     10 C           6.3117    1.9072    0.0000 C.2     1  UNL1       -0.0510
     11 C           6.3117   -0.1622    0.0000 C.3     1  UNL1        0.1518
     12 C           4.9169    2.7968    0.0000 C.3     1  UNL1        0.0035
     13 C           5.9105    2.8164    0.0000 C.3     1  UNL1       -0.0173
     14 C           4.5518   -0.1275    0.0000 C.ar    1  UNL1       -0.0307
     15 C           3.6857    1.3725    0.0000 C.3     1  UNL1        0.0250
     16 C           7.2178    0.3517    0.0000 C.3     1  UNL1        0.1588
     17 C           3.6857    0.3725    0.0000 C.ar    1  UNL1       -0.0260
     18 C           7.2178    1.3933    0.0000 C.2     1  UNL1       -0.0396
     19 C           4.5678   -1.1690    0.0000 C.ar    1  UNL1       -0.0122
     20 C           2.7757   -0.1344    0.0000 C.ar    1  UNL1       -0.0115
     21 C           3.6698   -1.6968    0.0000 C.ar    1  UNL1        0.1665
     22 C           2.7677   -1.1760    0.0000 C.ar    1  UNL1        0.1665
     23 C           7.1603   -1.6721    0.0000 C.2     1  UNL1        0.3043
     24 C           8.9498    0.3450    0.0000 C.2     1  UNL1        0.3046
     25 C           2.4220   -2.8164    0.0000 C.3     1  UNL1        0.2332
     26 C           7.1488   -2.6720    0.0000 C.3     1  UNL1        0.0332
     27 C           9.8139   -0.1583    0.0000 C.3     1  UNL1        0.0333
     28 H           6.1539    0.9475    0.0000 H       1  UNL1        0.0516
     29 H           5.4112   -0.4775    0.0000 H       1  UNL1        0.0405
     30 H           6.8456   -0.4773    0.0000 H       1  UNL1        0.0782
     31 H           4.9863    3.4129    0.0000 H       1  UNL1        0.0430
     32 H           4.3153    2.9467    0.0000 H       1  UNL1        0.0430
     33 H           6.5057    2.9899    0.0000 H       1  UNL1        0.0323
     34 H           5.8168    3.4293    0.0000 H       1  UNL1        0.0323
     35 H           3.4737    1.9551    0.0000 H       1  UNL1        0.0476
     36 H           3.0752    1.2648    0.0000 H       1  UNL1        0.0476
     37 H           7.7553    0.6606    0.0000 H       1  UNL1        0.0817
     38 H           7.7535    1.7054    0.0000 H       1  UNL1        0.0610
     39 H           5.1083   -1.4728    0.0000 H       1  UNL1        0.0658
     40 H           2.2424    0.1818    0.0000 H       1  UNL1        0.0658
     41 H           1.8324   -3.0081    0.0000 H       1  UNL1        0.1166
     42 H           2.5507   -3.4229    0.0000 H       1  UNL1        0.1166
     43 H           6.5288   -2.6648    0.0000 H       1  UNL1        0.0342
     44 H           7.1416   -3.2920    0.0000 H       1  UNL1        0.0342
     45 H           7.7687   -2.6792    0.0000 H       1  UNL1        0.0342
     46 H           9.5018   -0.6941    0.0000 H       1  UNL1        0.0342
     47 H          10.3497   -0.4704    0.0000 H       1  UNL1        0.0342
     48 H          10.1260    0.3774    0.0000 H       1  UNL1        0.0342
@<TRIPOS>BOND
     1    11     1    1
     2     1    23    1
     3    16     2    1
     4     2    24    1
     5     3    21    1
     6     3    25    1
     7     4    22    1
     8     4    25    1
     9     5    23    2
    10     6    24    2
    11     7     8    1
    12     7    12    1
    13     7    15    1
    14     8     9    1
    15     8    10    1
    16     8    28    1
    17     9    11    1
    18     9    14    1
    19     9    29    1
    20    10    13    1
    21    10    18    2
    22    11    16    1
    23    11    30    1
    24    12    13    1
    25    12    31    1
    26    12    32    1
    27    13    33    1
    28    13    34    1
    29    14    17   ar
    30    14    19   ar
    31    15    17    1
    32    15    35    1
    33    15    36    1
    34    16    18    1
    35    16    37    1
    36    17    20   ar
    37    18    38    1
    38    19    21   ar
    39    19    39    1
    40    20    22   ar
    41    20    40    1
    42    21    22   ar
    43    23    26    1
    44    24    27    1
    45    25    41    1
    46    25    42    1
    47    26    43    1
    48    26    44    1
    49    26    45    1
    50    27    46    1
    51    27    47    1
    52    27    48    1
