@<TRIPOS>MOLECULE
IMPHY004503
 80 83 0 0 0
SMALL
GASTEIGER

@<TRIPOS>ATOM
      1 O           5.2710   -3.7226    0.0000 O.3     1  UNL1       -0.3850
      2 O           6.1847   -4.2434    0.0000 O.3     1  UNL1       -0.3849
      3 O           2.5357   -3.2265    0.0000 O.3     1  UNL1       -0.3917
      4 C           7.9288   -0.1741    0.0000 C.3     1  UNL1       -0.0222
      5 C           7.9288   -1.1741    0.0000 C.3     1  UNL1       -0.0139
      6 C           6.1968   -1.1741    0.0000 C.3     1  UNL1       -0.0114
      7 C           5.2868   -1.6810    0.0000 C.3     1  UNL1        0.0061
      8 C           8.8750    0.1306    0.0000 C.3     1  UNL1       -0.0291
      9 C           7.0628   -1.6741    0.0000 C.2     1  UNL1       -0.0637
     10 C           5.2787   -2.7226    0.0000 C.3     1  UNL1        0.1035
     11 C           7.0628    0.3259    0.0000 C.3     1  UNL1       -0.0463
     12 C           6.1968   -0.1741    0.0000 C.3     1  UNL1       -0.0454
     13 C           8.8750   -1.4789    0.0000 C.3     1  UNL1       -0.0457
     14 C           9.4586   -0.6741    0.0000 C.3     1  UNL1       -0.0486
     15 C           4.3599   -1.1169    0.0000 C.3     1  UNL1       -0.0420
     16 C           6.1808   -3.2434    0.0000 C.3     1  UNL1        0.1029
     17 C           7.0789   -2.7156    0.0000 C.2     1  UNL1       -0.0533
     18 C           4.3433   -3.2723    0.0000 C.3     1  UNL1        0.0054
     19 C           7.9288    0.8259    0.0000 C.3     1  UNL1       -0.0587
     20 C           9.1857    1.0811    0.0000 C.3     1  UNL1       -0.0224
     21 C           5.2945   -0.6810    0.0000 C.3     1  UNL1       -0.0563
     22 C           3.4120   -1.6448    0.0000 C.3     1  UNL1       -0.0262
     23 C           3.4037   -2.7298    0.0000 C.3     1  UNL1        0.0580
     24 C           8.5179    1.8254    0.0000 C.3     1  UNL1       -0.0587
     25 C          10.1642    1.2873    0.0000 C.2     1  UNL1       -0.0848
     26 C          10.4749    2.2378    0.0000 C.2     1  UNL1       -0.0874
     27 C          11.4534    2.4441    0.0000 C.3     1  UNL1       -0.0319
     28 C          11.7640    3.3946    0.0000 C.3     1  UNL1       -0.0381
     29 C          12.7425    3.6008    0.0000 C.3     1  UNL1       -0.0439
     30 C          11.0962    4.1389    0.0000 C.3     1  UNL1       -0.0619
     31 C          13.0532    4.5513    0.0000 C.3     1  UNL1       -0.0624
     32 C          13.4104    2.8565    0.0000 C.3     1  UNL1       -0.0624
     33 H           8.0188   -2.0194    0.0000 H       1  UNL1        0.0351
     34 H           6.9329   -0.7491    0.0000 H       1  UNL1        0.0352
     35 H           9.7148    0.2625    0.0000 H       1  UNL1        0.0312
     36 H           7.4613    0.8008    0.0000 H       1  UNL1        0.0271
     37 H           6.6643    0.8008    0.0000 H       1  UNL1        0.0271
     38 H           5.9847    0.4085    0.0000 H       1  UNL1        0.0271
     39 H           5.5862   -0.2818    0.0000 H       1  UNL1        0.0271
     40 H           8.6240   -2.0458    0.0000 H       1  UNL1        0.0271
     41 H           9.4124   -1.7881    0.0000 H       1  UNL1        0.0271
     42 H           9.9195   -1.0889    0.0000 H       1  UNL1        0.0268
     43 H           9.9195   -0.2594    0.0000 H       1  UNL1        0.0268
     44 H           4.7681   -0.6503    0.0000 H       1  UNL1        0.0272
     45 H           3.9700   -0.6349    0.0000 H       1  UNL1        0.0272
     46 H           6.7195   -3.5503    0.0000 H       1  UNL1        0.0667
     47 H           7.6193   -3.0194    0.0000 H       1  UNL1        0.0598
     48 H           3.9460   -3.7483    0.0000 H       1  UNL1        0.0319
     49 H           4.7443   -3.7452    0.0000 H       1  UNL1        0.0319
     50 H           8.5488    0.8259    0.0000 H       1  UNL1        0.0235
     51 H           7.9288    1.4459    0.0000 H       1  UNL1        0.0235
     52 H           7.3088    0.8259    0.0000 H       1  UNL1        0.0235
     53 H           9.3783    1.6704    0.0000 H       1  UNL1        0.0343
     54 H           5.9145   -0.6858    0.0000 H       1  UNL1        0.0236
     55 H           5.2993   -0.0610    0.0000 H       1  UNL1        0.0236
     56 H           4.6745   -0.6762    0.0000 H       1  UNL1        0.0236
     57 H           3.2075   -1.0596    0.0000 H       1  UNL1        0.0290
     58 H           2.8004   -1.7462    0.0000 H       1  UNL1        0.0290
     59 H           2.8686   -2.4167    0.0000 H       1  UNL1        0.0594
     60 H           4.7317   -4.0284    0.0000 H       1  UNL1        0.2103
     61 H           8.9793    2.2395    0.0000 H       1  UNL1        0.0235
     62 H           8.1038    2.2869    0.0000 H       1  UNL1        0.0235
     63 H           8.0564    1.4114    0.0000 H       1  UNL1        0.0235
     64 H          10.5783    0.8259    0.0000 H       1  UNL1        0.0572
     65 H           6.7228   -4.5513    0.0000 H       1  UNL1        0.2103
     66 H           2.0000   -2.9144    0.0000 H       1  UNL1        0.2098
     67 H          10.0608    2.6993    0.0000 H       1  UNL1        0.0569
     68 H          11.4739    1.8244    0.0000 H       1  UNL1        0.0310
     69 H          12.0672    2.3567    0.0000 H       1  UNL1        0.0310
     70 H          11.9567    3.9839    0.0000 H       1  UNL1        0.0304
     71 H          12.5499    3.0115    0.0000 H       1  UNL1        0.0298
     72 H          11.5577    4.5530    0.0000 H       1  UNL1        0.0233
     73 H          10.6821    4.6004    0.0000 H       1  UNL1        0.0233
     74 H          10.6347    3.7248    0.0000 H       1  UNL1        0.0233
     75 H          13.6425    4.3587    0.0000 H       1  UNL1        0.0232
     76 H          13.2458    5.1406    0.0000 H       1  UNL1        0.0232
     77 H          12.4639    4.7439    0.0000 H       1  UNL1        0.0232
     78 H          12.9489    2.4424    0.0000 H       1  UNL1        0.0232
     79 H          13.8245    2.3950    0.0000 H       1  UNL1        0.0232
     80 H          13.8719    3.2706    0.0000 H       1  UNL1        0.0232
@<TRIPOS>BOND
     1    10     1    1
     2     1    60    1
     3    16     2    1
     4     2    65    1
     5    23     3    1
     6     3    66    1
     7     4     5    1
     8     4     8    1
     9     4    11    1
    10     4    19    1
    11     5     9    1
    12     5    13    1
    13     5    33    1
    14     6     7    1
    15     6     9    1
    16     6    12    1
    17     6    34    1
    18     7    10    1
    19     7    15    1
    20     7    21    1
    21     8    14    1
    22     8    20    1
    23     8    35    1
    24     9    17    2
    25    10    16    1
    26    10    18    1
    27    11    12    1
    28    11    36    1
    29    11    37    1
    30    12    38    1
    31    12    39    1
    32    13    14    1
    33    13    40    1
    34    13    41    1
    35    14    42    1
    36    14    43    1
    37    15    22    1
    38    15    44    1
    39    15    45    1
    40    16    17    1
    41    16    46    1
    42    17    47    1
    43    18    23    1
    44    18    48    1
    45    18    49    1
    46    19    50    1
    47    19    51    1
    48    19    52    1
    49    20    24    1
    50    20    25    1
    51    20    53    1
    52    21    54    1
    53    21    55    1
    54    21    56    1
    55    22    23    1
    56    22    57    1
    57    22    58    1
    58    23    59    1
    59    24    61    1
    60    24    62    1
    61    24    63    1
    62    25    26    2
    63    25    64    1
    64    26    27    1
    65    26    67    1
    66    27    28    1
    67    27    68    1
    68    27    69    1
    69    28    29    1
    70    28    30    1
    71    28    70    1
    72    29    31    1
    73    29    32    1
    74    29    71    1
    75    30    72    1
    76    30    73    1
    77    30    74    1
    78    31    75    1
    79    31    76    1
    80    31    77    1
    81    32    78    1
    82    32    79    1
    83    32    80    1
