@<TRIPOS>MOLECULE
IMPHY014388
 168 176 0 0 0
SMALL
GASTEIGER

@<TRIPOS>ATOM
      1 S           4.2690   -0.9783    0.0000 S.3     1  UNL1        0.0000
      2 NA          2.5369   -0.9783    0.0000 Na      2  UNL2        0.0000
      3 O           9.5986    8.2210    0.0000 O.3     1  UNL1        0.0000
      4 O           7.8356    8.5399    0.0000 O.3     1  UNL1        0.0000
      5 O          10.4181    6.0378    0.0000 O.3     1  UNL1        0.0000
      6 O           8.7738   10.3249    0.0000 O.3     1  UNL1        0.0000
      7 O          10.4715    7.0872    0.0000 O.2     1  UNL1        0.0000
      8 O           8.5991    0.5217    0.0000 O.3     1  UNL1        0.0000
      9 O           6.8671    0.5217    0.0000 O.3     1  UNL1        0.0000
     10 O           8.5991   -1.4783    0.0000 O.3     1  UNL1        0.0000
     11 O           6.8671   -2.4783    0.0000 O.3     1  UNL1        0.0000
     12 O           5.1350   -1.4783    0.0000 O.3     1  UNL1        0.0000
     13 O           7.7331   -2.9783    0.0000 O.3     1  UNL1        0.0000
     14 O          10.3312   -2.4783    0.0000 O.3     1  UNL1        0.0000
     15 O          10.3312   -4.4783    0.0000 O.3     1  UNL1        0.0000
     16 O           3.4030   -0.4783    0.0000 O.co2   1  UNL1       -0.3300
     17 O           8.5991   -5.4783    0.0000 O.3     1  UNL1        0.0000
     18 O           3.7690   -1.8444    0.0000 O.2     1  UNL1       -0.3300
     19 O           4.7690   -0.1123    0.0000 O.2     1  UNL1       -0.3300
     20 O           6.8671   -5.4783    0.0000 O.3     1  UNL1        0.0000
     21 O           8.5991   -7.4783    0.0000 O.3     1  UNL1        0.0000
     22 O           6.8671   -8.4783    0.0000 O.3     1  UNL1        0.0000
     23 O           5.1350   -7.4783    0.0000 O.3     1  UNL1        0.0000
     24 O           5.1350   -4.4783    0.0000 O.3     1  UNL1        0.0000
     25 O           5.1350   -8.4783    0.0000 O.3     1  UNL1        0.0000
     26 O           6.8671  -10.4783    0.0000 O.3     1  UNL1        0.0000
     27 O           5.1350  -11.4783    0.0000 O.3     1  UNL1        0.0000
     28 O           3.4030  -10.4783    0.0000 O.3     1  UNL1        0.0000
     29 O           2.5369   -8.9783    0.0000 O.3     1  UNL1        0.0000
     30 C           8.5698    6.7185    0.0000 C.3     1  UNL1        0.0000
     31 C           7.7019    6.2219    0.0000 C.3     1  UNL1        0.0000
     32 C           8.3644    7.6911    0.0000 C.3     1  UNL1        0.0000
     33 C           7.6980    5.2219    0.0000 C.3     1  UNL1        0.0000
     34 C           6.9675    6.8918    0.0000 C.3     1  UNL1        0.0000
     35 C           7.3761    7.7980    0.0000 C.3     1  UNL1        0.0000
     36 C           8.8618    8.5450    0.0000 C.3     1  UNL1        0.0000
     37 C           8.5742    3.6770    0.0000 C.3     1  UNL1        0.0000
     38 C           9.4340    6.2152    0.0000 C.3     1  UNL1        0.0000
     39 C           8.5621    4.7185    0.0000 C.2     1  UNL1        0.0000
     40 C           7.6741    3.1527    0.0000 C.3     1  UNL1        0.0000
     41 C           6.7861    4.7185    0.0000 C.3     1  UNL1        0.0000
     42 C           9.4721    7.1217    0.0000 C.2     1  UNL1        0.0000
     43 C           6.8340    5.7252    0.0000 C.3     1  UNL1        0.0000
     44 C           6.7741    3.6770    0.0000 C.3     1  UNL1        0.0000
     45 C           9.4301    5.2152    0.0000 C.2     1  UNL1        0.0000
     46 C           7.6616    2.0678    0.0000 C.3     1  UNL1        0.0000
     47 C           9.2712    9.4574    0.0000 C.3     1  UNL1        0.0000
     48 C           9.5241    3.1527    0.0000 C.3     1  UNL1        0.0000
     49 C           8.5991    1.5217    0.0000 C.3     1  UNL1        0.0000
     50 C           8.3950    9.4294    0.0000 C.3     1  UNL1        0.0000
     51 C           9.4383    4.1803    0.0000 C.3     1  UNL1        0.0000
     52 C           9.5366    2.0678    0.0000 C.3     1  UNL1        0.0000
     53 C          10.2500    9.6624    0.0000 C.3     1  UNL1        0.0000
     54 C           6.6616    2.0755    0.0000 C.3     1  UNL1        0.0000
     55 C           7.1549    1.2056    0.0000 C.3     1  UNL1        0.0000
     56 C           9.4452   11.0660    0.0000 C.3     1  UNL1        0.0000
     57 C          10.3575   10.6566    0.0000 C.3     1  UNL1        0.0000
     58 C           9.8547   11.9783    0.0000 C.3     1  UNL1        0.0000
     59 C           8.7040   11.7374    0.0000 C.3     1  UNL1        0.0000
     60 C           7.7331    0.0217    0.0000 C.3     1  UNL1        0.0000
     61 C           7.7331   -0.9783    0.0000 C.3     1  UNL1        0.0000
     62 C           6.8671   -1.4783    0.0000 C.3     1  UNL1        0.0000
     63 C           6.0010    0.0217    0.0000 C.3     1  UNL1        0.0000
     64 C           6.0010   -0.9783    0.0000 C.3     1  UNL1        0.0000
     65 C           8.5991   -2.4783    0.0000 C.3     1  UNL1        0.0000
     66 C           9.4651   -2.9783    0.0000 C.3     1  UNL1        0.0000
     67 C           9.4651   -3.9783    0.0000 C.3     1  UNL1        0.0000
     68 C           7.7331   -3.9783    0.0000 C.3     1  UNL1        0.0000
     69 C           8.5991   -4.4783    0.0000 C.3     1  UNL1        0.0000
     70 C           6.8671   -4.4783    0.0000 C.3     1  UNL1        0.0000
     71 C           7.7331   -5.9783    0.0000 C.3     1  UNL1        0.0000
     72 C           7.7331   -6.9783    0.0000 C.3     1  UNL1        0.0000
     73 C           6.8671   -7.4783    0.0000 C.3     1  UNL1        0.0000
     74 C           6.0010   -5.9783    0.0000 C.3     1  UNL1        0.0000
     75 C           6.0010   -6.9783    0.0000 C.3     1  UNL1        0.0000
     76 C           5.1350   -5.4783    0.0000 C.3     1  UNL1        0.0000
     77 C           6.0010   -8.9783    0.0000 C.3     1  UNL1        0.0000
     78 C           6.0010   -9.9783    0.0000 C.3     1  UNL1        0.0000
     79 C           5.1350  -10.4783    0.0000 C.3     1  UNL1        0.0000
     80 C           4.2690   -8.9783    0.0000 C.3     1  UNL1        0.0000
     81 C           4.2690   -9.9783    0.0000 C.3     1  UNL1        0.0000
     82 C           3.4030   -8.4783    0.0000 C.3     1  UNL1        0.0000
     83 C           6.0010  -11.9783    0.0000 C.3     1  UNL1        0.0000
     84 H           8.4358    5.6440    0.0000 H       1  UNL1        0.0000
     85 H           6.4322    7.2046    0.0000 H       1  UNL1        0.0000
     86 H           6.6001    6.3924    0.0000 H       1  UNL1        0.0000
     87 H           7.5071    8.4040    0.0000 H       1  UNL1        0.0000
     88 H           6.7872    7.9920    0.0000 H       1  UNL1        0.0000
     89 H           9.6482    6.7970    0.0000 H       1  UNL1        0.0000
     90 H           6.9348    2.7334    0.0000 H       1  UNL1        0.0000
     91 H           6.5838    5.3046    0.0000 H       1  UNL1        0.0000
     92 H           6.1741    4.6195    0.0000 H       1  UNL1        0.0000
     93 H           6.5260    6.2633    0.0000 H       1  UNL1        0.0000
     94 H           6.2958    5.4173    0.0000 H       1  UNL1        0.0000
     95 H           7.1419    5.1871    0.0000 H       1  UNL1        0.0000
     96 H           6.1645    3.7901    0.0000 H       1  UNL1        0.0000
     97 H           6.5583    3.0957    0.0000 H       1  UNL1        0.0000
     98 H           9.9658    4.9031    0.0000 H       1  UNL1        0.0000
     99 H           9.8042    8.7952    0.0000 H       1  UNL1        0.0000
    100 H          10.1361    3.0537    0.0000 H       1  UNL1        0.0000
    101 H           9.7264    3.7388    0.0000 H       1  UNL1        0.0000
    102 H           8.0616    1.2127    0.0000 H       1  UNL1        0.0000
    103 H           8.9433    9.7188    0.0000 H       1  UNL1        0.0000
    104 H           8.1055    9.9777    0.0000 H       1  UNL1        0.0000
    105 H           7.8467    9.1400    0.0000 H       1  UNL1        0.0000
    106 H           7.2159    8.5190    0.0000 H       1  UNL1        0.0000
    107 H           9.7503    3.6446    0.0000 H       1  UNL1        0.0000
    108 H           9.9740    4.4924    0.0000 H       1  UNL1        0.0000
    109 H           9.1262    4.7160    0.0000 H       1  UNL1        0.0000
    110 H           9.7524    1.4865    0.0000 H       1  UNL1        0.0000
    111 H          10.1462    2.1809    0.0000 H       1  UNL1        0.0000
    112 H          10.3130    9.0456    0.0000 H       1  UNL1        0.0000
    113 H          10.8700    9.6605    0.0000 H       1  UNL1        0.0000
    114 H          10.6279    5.4543    0.0000 H       1  UNL1        0.0000
    115 H           6.6664    2.6955    0.0000 H       1  UNL1        0.0000
    116 H           6.0416    2.0803    0.0000 H       1  UNL1        0.0000
    117 H           6.6568    1.4555    0.0000 H       1  UNL1        0.0000
    118 H           6.6204    1.5198    0.0000 H       1  UNL1        0.0000
    119 H           6.8408    0.6711    0.0000 H       1  UNL1        0.0000
    120 H           7.6894    0.8915    0.0000 H       1  UNL1        0.0000
    121 H          10.9636   10.5258    0.0000 H       1  UNL1        0.0000
    122 H          10.5509   11.2456    0.0000 H       1  UNL1        0.0000
    123 H          10.4203   11.7245    0.0000 H       1  UNL1        0.0000
    124 H          10.1085   12.5440    0.0000 H       1  UNL1        0.0000
    125 H           9.2890   12.2322    0.0000 H       1  UNL1        0.0000
    126 H           9.1203   12.1969    0.0000 H       1  UNL1        0.0000
    127 H           8.2445   12.1536    0.0000 H       1  UNL1        0.0000
    128 H           8.2878   11.2779    0.0000 H       1  UNL1        0.0000
    129 H           7.7331    0.6417    0.0000 H       1  UNL1        0.0000
    130 H           7.7331   -1.5983    0.0000 H       1  UNL1        0.0000
    131 H           6.3301   -1.7883    0.0000 H       1  UNL1        0.0000
    132 H           5.7890    0.6043    0.0000 H       1  UNL1        0.0000
    133 H           5.3905   -0.0860    0.0000 H       1  UNL1        0.0000
    134 H           5.4641   -0.6683    0.0000 H       1  UNL1        0.0000
    135 H           8.0622   -2.1683    0.0000 H       1  UNL1        0.0000
    136 H           6.3301   -2.7883    0.0000 H       1  UNL1        0.0000
    137 H          10.0021   -3.2883    0.0000 H       1  UNL1        0.0000
    138 H           9.4651   -4.5983    0.0000 H       1  UNL1        0.0000
    139 H           7.1962   -3.6683    0.0000 H       1  UNL1        0.0000
    140 H           8.0622   -4.7883    0.0000 H       1  UNL1        0.0000
    141 H          10.3312   -1.8583    0.0000 H       1  UNL1        0.0000
    142 H           6.5571   -3.9414    0.0000 H       1  UNL1        0.0000
    143 H           6.3301   -4.7883    0.0000 H       1  UNL1        0.0000
    144 H           7.1771   -5.0153    0.0000 H       1  UNL1        0.0000
    145 H          10.8681   -4.1683    0.0000 H       1  UNL1        0.0000
    146 H           8.2700   -6.2883    0.0000 H       1  UNL1        0.0000
    147 H           7.7331   -7.5983    0.0000 H       1  UNL1        0.0000
    148 H           6.3301   -7.7883    0.0000 H       1  UNL1        0.0000
    149 H           6.0010   -5.3583    0.0000 H       1  UNL1        0.0000
    150 H           6.0010   -7.5983    0.0000 H       1  UNL1        0.0000
    151 H           9.1360   -7.1683    0.0000 H       1  UNL1        0.0000
    152 H           4.5244   -5.3707    0.0000 H       1  UNL1        0.0000
    153 H           4.9230   -6.0610    0.0000 H       1  UNL1        0.0000
    154 H           6.0010   -8.3583    0.0000 H       1  UNL1        0.0000
    155 H           4.5981   -7.1683    0.0000 H       1  UNL1        0.0000
    156 H           6.0010  -10.5983    0.0000 H       1  UNL1        0.0000
    157 H           4.5981  -10.7883    0.0000 H       1  UNL1        0.0000
    158 H           4.5981   -4.1683    0.0000 H       1  UNL1        0.0000
    159 H           4.2690   -8.3583    0.0000 H       1  UNL1        0.0000
    160 H           4.2690  -10.5983    0.0000 H       1  UNL1        0.0000
    161 H           7.4040  -10.1683    0.0000 H       1  UNL1        0.0000
    162 H           3.8015   -8.0034    0.0000 H       1  UNL1        0.0000
    163 H           3.0044   -8.0034    0.0000 H       1  UNL1        0.0000
    164 H           3.4030  -11.0983    0.0000 H       1  UNL1        0.0000
    165 H           5.6910  -12.5153    0.0000 H       1  UNL1        0.0000
    166 H           6.5380  -12.2883    0.0000 H       1  UNL1        0.0000
    167 H           6.3110  -11.4414    0.0000 H       1  UNL1        0.0000
    168 H           2.0000   -8.6683    0.0000 H       1  UNL1        0.0000
@<TRIPOS>UNITY_ATOM_ATTR
2 1
charge 1
16 1
charge -1
@<TRIPOS>BOND
     1     1    12    1
     2     1    16    1
     3     1    18    2
     4     1    19    2
     5     3    36    1
     6     3    42    1
     7    32     4    1
     8     4   106    1
     9    38     5    1
    10     5   114    1
    11     6    47    1
    12     6    56    1
    13     7    42    2
    14    49     8    1
    15    60     8    1
    16     9    60    1
    17     9    63    1
    18    61    10    1
    19    65    10    1
    20    62    11    1
    21    11   136    1
    22    64    12    1
    23    13    65    1
    24    13    68    1
    25    66    14    1
    26    14   141    1
    27    67    15    1
    28    15   145    1
    29    69    17    1
    30    71    17    1
    31    20    71    1
    32    20    74    1
    33    72    21    1
    34    21   151    1
    35    73    22    1
    36    77    22    1
    37    75    23    1
    38    23   155    1
    39    24    76    1
    40    24   158    1
    41    25    77    1
    42    25    80    1
    43    78    26    1
    44    26   161    1
    45    79    27    1
    46    27    83    1
    47    81    28    1
    48    28   164    1
    49    29    82    1
    50    29   168    1
    51    30    31    1
    52    30    32    1
    53    30    38    1
    54    30    42    1
    55    31    33    1
    56    31    34    1
    57    31    43    1
    58    32    35    1
    59    32    36    1
    60    33    39    1
    61    33    41    1
    62    33    84    1
    63    34    35    1
    64    34    85    1
    65    34    86    1
    66    35    87    1
    67    35    88    1
    68    36    47    1
    69    36    50    1
    70    37    39    1
    71    37    40    1
    72    37    48    1
    73    37    51    1
    74    38    45    1
    75    38    89    1
    76    39    45    2
    77    40    44    1
    78    40    46    1
    79    40    90    1
    80    41    44    1
    81    41    91    1
    82    41    92    1
    83    43    93    1
    84    43    94    1
    85    43    95    1
    86    44    96    1
    87    44    97    1
    88    45    98    1
    89    46    49    1
    90    46    54    1
    91    46    55    1
    92    47    53    1
    93    47    99    1
    94    48    52    1
    95    48   100    1
    96    48   101    1
    97    49    52    1
    98    49   102    1
    99    50   103    1
   100    50   104    1
   101    50   105    1
   102    51   107    1
   103    51   108    1
   104    51   109    1
   105    52   110    1
   106    52   111    1
   107    53    57    1
   108    53   112    1
   109    53   113    1
   110    54   115    1
   111    54   116    1
   112    54   117    1
   113    55   118    1
   114    55   119    1
   115    55   120    1
   116    56    57    1
   117    56    58    1
   118    56    59    1
   119    57   121    1
   120    57   122    1
   121    58   123    1
   122    58   124    1
   123    58   125    1
   124    59   126    1
   125    59   127    1
   126    59   128    1
   127    60    61    1
   128    60   129    1
   129    61    62    1
   130    61   130    1
   131    62    64    1
   132    62   131    1
   133    63    64    1
   134    63   132    1
   135    63   133    1
   136    64   134    1
   137    65    66    1
   138    65   135    1
   139    66    67    1
   140    66   137    1
   141    67    69    1
   142    67   138    1
   143    68    69    1
   144    68    70    1
   145    68   139    1
   146    69   140    1
   147    70   142    1
   148    70   143    1
   149    70   144    1
   150    71    72    1
   151    71   146    1
   152    72    73    1
   153    72   147    1
   154    73    75    1
   155    73   148    1
   156    74    75    1
   157    74    76    1
   158    74   149    1
   159    75   150    1
   160    76   152    1
   161    76   153    1
   162    77    78    1
   163    77   154    1
   164    78    79    1
   165    78   156    1
   166    79    81    1
   167    79   157    1
   168    80    81    1
   169    80    82    1
   170    80   159    1
   171    81   160    1
   172    82   162    1
   173    82   163    1
   174    83   165    1
   175    83   166    1
   176    83   167    1
