@<TRIPOS>MOLECULE
IMPHY015478
 60 59 0 0 0
SMALL
GASTEIGER

@<TRIPOS>ATOM
      1 O          14.9904    0.2500    0.0000 O.3     1  UNL1       -0.4567
      2 O          15.8564   -1.2500    0.0000 O.2     1  UNL1       -0.2376
      3 O          17.5885   -0.2500    0.0000 O.3     1  UNL1       -0.4525
      4 O          16.7224    1.2500    0.0000 O.2     1  UNL1       -0.2376
      5 C           8.0622    0.2500    0.0000 C.3     1  UNL1       -0.0531
      6 C           8.9282   -0.2500    0.0000 C.3     1  UNL1       -0.0531
      7 C           7.1962   -0.2500    0.0000 C.3     1  UNL1       -0.0531
      8 C           9.7942    0.2500    0.0000 C.3     1  UNL1       -0.0531
      9 C           6.3301    0.2500    0.0000 C.3     1  UNL1       -0.0531
     10 C          10.6603   -0.2500    0.0000 C.3     1  UNL1       -0.0531
     11 C           5.4641   -0.2500    0.0000 C.3     1  UNL1       -0.0531
     12 C          11.5263    0.2500    0.0000 C.3     1  UNL1       -0.0530
     13 C           4.5981    0.2500    0.0000 C.3     1  UNL1       -0.0531
     14 C          12.3923   -0.2500    0.0000 C.3     1  UNL1       -0.0500
     15 C           3.7320   -0.2500    0.0000 C.3     1  UNL1       -0.0533
     16 C          13.2583    0.2500    0.0000 C.3     1  UNL1       -0.0185
     17 C           2.8660    0.2500    0.0000 C.3     1  UNL1       -0.0559
     18 C          14.1244   -0.2500    0.0000 C.3     1  UNL1        0.0930
     19 C           2.0000   -0.2500    0.0000 C.3     1  UNL1       -0.0653
     20 C          15.8564   -0.2500    0.0000 C.2     1  UNL1        0.4173
     21 C          16.7224    0.2500    0.0000 C.2     1  UNL1        0.4176
     22 C          18.4545    0.2500    0.0000 C.3     1  UNL1        0.1110
     23 C          19.3205   -0.2500    0.0000 C.2     1  UNL1       -0.0541
     24 C          20.1865    0.2500    0.0000 C.2     1  UNL1       -0.0995
     25 H           8.4607    0.7249    0.0000 H       1  UNL1        0.0265
     26 H           7.6636    0.7249    0.0000 H       1  UNL1        0.0265
     27 H           8.5297   -0.7249    0.0000 H       1  UNL1        0.0265
     28 H           9.3267   -0.7249    0.0000 H       1  UNL1        0.0265
     29 H           6.7976   -0.7249    0.0000 H       1  UNL1        0.0265
     30 H           7.5947   -0.7249    0.0000 H       1  UNL1        0.0265
     31 H          10.1928    0.7249    0.0000 H       1  UNL1        0.0265
     32 H           9.3957    0.7249    0.0000 H       1  UNL1        0.0265
     33 H           6.7287    0.7249    0.0000 H       1  UNL1        0.0265
     34 H           5.9316    0.7249    0.0000 H       1  UNL1        0.0265
     35 H          10.2617   -0.7249    0.0000 H       1  UNL1        0.0265
     36 H          11.0588   -0.7249    0.0000 H       1  UNL1        0.0265
     37 H           5.0656   -0.7249    0.0000 H       1  UNL1        0.0265
     38 H           5.8626   -0.7249    0.0000 H       1  UNL1        0.0265
     39 H          11.9248    0.7249    0.0000 H       1  UNL1        0.0265
     40 H          11.1278    0.7249    0.0000 H       1  UNL1        0.0265
     41 H           4.9966    0.7249    0.0000 H       1  UNL1        0.0265
     42 H           4.1996    0.7249    0.0000 H       1  UNL1        0.0265
     43 H          11.9938   -0.7249    0.0000 H       1  UNL1        0.0266
     44 H          12.7908   -0.7249    0.0000 H       1  UNL1        0.0266
     45 H           3.3335   -0.7249    0.0000 H       1  UNL1        0.0265
     46 H           4.1306   -0.7249    0.0000 H       1  UNL1        0.0265
     47 H          13.6569    0.7249    0.0000 H       1  UNL1        0.0298
     48 H          12.8598    0.7249    0.0000 H       1  UNL1        0.0298
     49 H           3.2646    0.7249    0.0000 H       1  UNL1        0.0263
     50 H           2.4675    0.7249    0.0000 H       1  UNL1        0.0263
     51 H          13.7258   -0.7249    0.0000 H       1  UNL1        0.0697
     52 H          14.5229   -0.7249    0.0000 H       1  UNL1        0.0697
     53 H           1.6900    0.2869    0.0000 H       1  UNL1        0.0230
     54 H           1.4631   -0.5600    0.0000 H       1  UNL1        0.0230
     55 H           2.3100   -0.7869    0.0000 H       1  UNL1        0.0230
     56 H          18.8530    0.7249    0.0000 H       1  UNL1        0.0743
     57 H          18.0560    0.7249    0.0000 H       1  UNL1        0.0743
     58 H          19.3205   -0.8700    0.0000 H       1  UNL1        0.0600
     59 H          20.7235   -0.0600    0.0000 H       1  UNL1        0.0533
     60 H          20.1865    0.8700    0.0000 H       1  UNL1        0.0533
@<TRIPOS>BOND
     1     1    18    1
     2     1    20    1
     3     2    20    2
     4     3    21    1
     5     3    22    1
     6     4    21    2
     7     5     6    1
     8     5     7    1
     9     5    25    1
    10     5    26    1
    11     6     8    1
    12     6    27    1
    13     6    28    1
    14     7     9    1
    15     7    29    1
    16     7    30    1
    17     8    10    1
    18     8    31    1
    19     8    32    1
    20     9    11    1
    21     9    33    1
    22     9    34    1
    23    10    12    1
    24    10    35    1
    25    10    36    1
    26    11    13    1
    27    11    37    1
    28    11    38    1
    29    12    14    1
    30    12    39    1
    31    12    40    1
    32    13    15    1
    33    13    41    1
    34    13    42    1
    35    14    16    1
    36    14    43    1
    37    14    44    1
    38    15    17    1
    39    15    45    1
    40    15    46    1
    41    16    18    1
    42    16    47    1
    43    16    48    1
    44    17    19    1
    45    17    49    1
    46    17    50    1
    47    18    51    1
    48    18    52    1
    49    19    53    1
    50    19    54    1
    51    19    55    1
    52    20    21    1
    53    22    23    1
    54    22    56    1
    55    22    57    1
    56    23    24    2
    57    23    58    1
    58    24    59    1
    59    24    60    1
