@<TRIPOS>MOLECULE
IMPHY017908
 24 24 0 0 0
SMALL
GASTEIGER

@<TRIPOS>ATOM
      1 O           2.0000   -1.0094    0.0000 O.2     1  UNL1       -0.2924
      2 C           3.7601    0.2694    0.0000 C.3     1  UNL1       -0.0247
      3 C           3.7601   -0.7306    0.0000 C.2     1  UNL1       -0.0089
      4 C           4.6261    0.7694    0.0000 C.3     1  UNL1       -0.0492
      5 C           3.2601   -2.2694    0.0000 C.3     1  UNL1        0.0136
      6 C           4.2601   -2.2694    0.0000 C.3     1  UNL1       -0.0271
      7 C           2.9511   -1.3184    0.0000 C.2     1  UNL1        0.1592
      8 C           4.5691   -1.3184    0.0000 C.2     1  UNL1       -0.0771
      9 C           4.6261    1.7694    0.0000 C.3     1  UNL1       -0.0556
     10 C           5.4921    2.2694    0.0000 C.3     1  UNL1       -0.0653
     11 H           3.5480    0.8520    0.0000 H       1  UNL1        0.0314
     12 H           3.1495    0.1618    0.0000 H       1  UNL1        0.0314
     13 H           4.8382    0.1868    0.0000 H       1  UNL1        0.0268
     14 H           5.2367    0.8771    0.0000 H       1  UNL1        0.0268
     15 H           2.6536   -2.3983    0.0000 H       1  UNL1        0.0348
     16 H           3.3249   -2.8860    0.0000 H       1  UNL1        0.0348
     17 H           4.1953   -2.8860    0.0000 H       1  UNL1        0.0312
     18 H           4.8665   -2.3983    0.0000 H       1  UNL1        0.0312
     19 H           5.1588   -1.1268    0.0000 H       1  UNL1        0.0576
     20 H           4.4140    2.3520    0.0000 H       1  UNL1        0.0263
     21 H           4.0155    1.6618    0.0000 H       1  UNL1        0.0263
     22 H           5.8021    1.7325    0.0000 H       1  UNL1        0.0230
     23 H           6.0291    2.5794    0.0000 H       1  UNL1        0.0230
     24 H           5.1821    2.8064    0.0000 H       1  UNL1        0.0230
@<TRIPOS>BOND
     1     1     7    2
     2     2     3    1
     3     2     4    1
     4     2    11    1
     5     2    12    1
     6     3     7    1
     7     3     8    2
     8     4     9    1
     9     4    13    1
    10     4    14    1
    11     5     6    1
    12     5     7    1
    13     5    15    1
    14     5    16    1
    15     6     8    1
    16     6    17    1
    17     6    18    1
    18     8    19    1
    19     9    10    1
    20     9    20    1
    21     9    21    1
    22    10    22    1
    23    10    23    1
    24    10    24    1
