@<TRIPOS>MOLECULE
IMPHY008311
 57 59 0 0 0
SMALL
GASTEIGER

@<TRIPOS>ATOM
      1 O           6.0812    2.2264    0.0000 O.2     1  UNL1       -0.4547
      2 O           9.6648    1.2990    0.0000 O.3     1  UNL1       -0.4947
      3 O           9.6648    4.7631    0.0000 O.3     1  UNL1       -0.5066
      4 O           2.5369    2.0311    0.0000 O.3     1  UNL1       -0.5066
      5 C           8.1648    2.1651    0.0000 C.ar    1  UNL1        0.0089
      6 C           7.6648    1.2990    0.0000 C.3     1  UNL1       -0.0051
      7 C           7.6648    3.0311    0.0000 C.ar    1  UNL1        0.0277
      8 C           6.6648    3.0311    0.0000 C.ar    1  UNL1        0.1367
      9 C           7.6648   -0.4330    0.0000 C.2     1  UNL1       -0.0759
     10 C           8.1648   -1.2990    0.0000 C.3     1  UNL1       -0.0286
     11 C           8.1648    0.4330    0.0000 C.2     1  UNL1       -0.0806
     12 C           9.1648    2.1651    0.0000 C.ar    1  UNL1        0.1277
     13 C           7.6648   -2.1651    0.0000 C.3     1  UNL1       -0.0308
     14 C           8.1648    3.8971    0.0000 C.ar    1  UNL1       -0.0090
     15 C           5.1350    3.5311    0.0000 C.ar    1  UNL1        0.0210
     16 C           6.0812    3.8358    0.0000 C.ar    1  UNL1       -0.0081
     17 C           5.1350    2.5311    0.0000 C.ar    1  UNL1        0.1391
     18 C           9.6648    3.0311    0.0000 C.ar    1  UNL1        0.0218
     19 C           9.1648    3.8971    0.0000 C.ar    1  UNL1        0.1210
     20 C           6.6648   -0.4330    0.0000 C.3     1  UNL1       -0.0438
     21 C           8.1648   -3.0311    0.0000 C.2     1  UNL1       -0.0850
     22 C           4.2690    4.0311    0.0000 C.ar    1  UNL1       -0.0475
     23 C           4.2690    2.0311    0.0000 C.ar    1  UNL1        0.0227
     24 C           7.6648   -3.8971    0.0000 C.2     1  UNL1       -0.0796
     25 C           3.4030    2.5311    0.0000 C.ar    1  UNL1        0.1204
     26 C           3.4030    3.5311    0.0000 C.ar    1  UNL1       -0.0194
     27 C           8.1648   -4.7631    0.0000 C.3     1  UNL1       -0.0440
     28 C           6.6648   -3.8971    0.0000 C.3     1  UNL1       -0.0440
     29 C          10.6648    1.2990    0.0000 C.3     1  UNL1        0.0788
     30 H           7.1899    1.6976    0.0000 H       1  UNL1        0.0357
     31 H           7.1899    0.9005    0.0000 H       1  UNL1        0.0357
     32 H           8.6398   -1.6976    0.0000 H       1  UNL1        0.0313
     33 H           8.6398   -0.9005    0.0000 H       1  UNL1        0.0313
     34 H           8.7848    0.4330    0.0000 H       1  UNL1        0.0575
     35 H           7.1899   -1.7665    0.0000 H       1  UNL1        0.0310
     36 H           7.1899   -2.5636    0.0000 H       1  UNL1        0.0310
     37 H           7.8548    4.4340    0.0000 H       1  UNL1        0.0661
     38 H           6.2738    4.4251    0.0000 H       1  UNL1        0.0661
     39 H          10.2848    3.0311    0.0000 H       1  UNL1        0.0691
     40 H           6.6648    0.1870    0.0000 H       1  UNL1        0.0274
     41 H           6.0448   -0.4330    0.0000 H       1  UNL1        0.0274
     42 H           6.6648   -1.0530    0.0000 H       1  UNL1        0.0274
     43 H           8.7848   -3.0311    0.0000 H       1  UNL1        0.0572
     44 H           4.2690    4.6511    0.0000 H       1  UNL1        0.0626
     45 H           4.2690    1.4111    0.0000 H       1  UNL1        0.0691
     46 H           2.8660    3.8411    0.0000 H       1  UNL1        0.0654
     47 H           7.6279   -5.0731    0.0000 H       1  UNL1        0.0274
     48 H           6.6648   -3.2771    0.0000 H       1  UNL1        0.0274
     49 H           6.0448   -3.8971    0.0000 H       1  UNL1        0.0274
     50 H           6.6648   -4.5171    0.0000 H       1  UNL1        0.0274
     51 H           8.4748   -5.3001    0.0000 H       1  UNL1        0.0274
     52 H           8.7018   -4.4531    0.0000 H       1  UNL1        0.0274
     53 H          10.2848    4.7631    0.0000 H       1  UNL1        0.2921
     54 H          10.6648    0.6790    0.0000 H       1  UNL1        0.0660
     55 H          11.2848    1.2990    0.0000 H       1  UNL1        0.0660
     56 H          10.6648    1.9190    0.0000 H       1  UNL1        0.0660
     57 H           2.0000    2.3411    0.0000 H       1  UNL1        0.2921
@<TRIPOS>BOND
     1     1     8   ar
     2     1    17   ar
     3     2    12    1
     4     2    29    1
     5     3    19    1
     6     3    53    1
     7     4    25    1
     8     4    57    1
     9     5     6    1
    10     5     7   ar
    11     5    12   ar
    12     6    11    1
    13     6    30    1
    14     6    31    1
    15     7     8    1
    16     7    14   ar
    17     8    16   ar
    18     9    10    1
    19     9    11    2
    20     9    20    1
    21    10    13    1
    22    10    32    1
    23    10    33    1
    24    11    34    1
    25    12    18   ar
    26    13    21    1
    27    13    35    1
    28    13    36    1
    29    14    19   ar
    30    14    37    1
    31    15    16   ar
    32    15    17   ar
    33    15    22   ar
    34    16    38    1
    35    17    23   ar
    36    18    19   ar
    37    18    39    1
    38    20    40    1
    39    20    41    1
    40    20    42    1
    41    21    24    2
    42    21    43    1
    43    22    26   ar
    44    22    44    1
    45    23    25   ar
    46    23    45    1
    47    24    27    1
    48    24    28    1
    49    25    26   ar
    50    26    46    1
    51    27    47    1
    52    27    51    1
    53    27    52    1
    54    28    48    1
    55    28    49    1
    56    28    50    1
    57    29    54    1
    58    29    55    1
    59    29    56    1
