@<TRIPOS>MOLECULE
IMPHY002188
 51 55 0 0 0
SMALL
GASTEIGER

@<TRIPOS>ATOM
      1 O           9.8833    1.2602    0.0000 O.3     1  UNL1       -0.3509
      2 O           4.1297    1.2702    0.0000 O.3     1  UNL1       -0.3855
      3 O           8.4841    2.3446    0.0000 O.3     1  UNL1       -0.3667
      4 N           6.0420    1.7760    0.0000 N.3     1  UNL1       -0.3022
      5 N           5.0223   -1.9931    0.0000 N.ar    1  UNL1       -0.3452
      6 C           8.5686   -0.3379    0.0000 C.3     1  UNL1       -0.0254
      7 C           8.2103    0.5957    0.0000 C.3     1  UNL1        0.0312
      8 C           6.7786    0.7933    0.0000 C.3     1  UNL1        0.0461
      9 C           6.5198   -0.1726    0.0000 C.3     1  UNL1        0.0492
     10 C           7.7915   -0.9672    0.0000 C.3     1  UNL1       -0.0284
     11 C           9.5948   -0.5167    0.0000 C.3     1  UNL1       -0.0144
     12 C           4.7454    0.4822    0.0000 C.3     1  UNL1        0.0981
     13 C           8.8532    1.4152    0.0000 C.3     1  UNL1        0.1607
     14 C           5.2988   -1.0382    0.0000 C.ar    1  UNL1        0.0423
     15 C           4.4698   -0.4790    0.0000 C.ar    1  UNL1        0.0123
     16 C          10.2566    0.2877    0.0000 C.3     1  UNL1        0.0537
     17 C           9.9424   -1.4544    0.0000 C.3     1  UNL1       -0.0507
     18 C           3.6880   -1.0931    0.0000 C.ar    1  UNL1        0.0058
     19 C           4.0288   -2.0269    0.0000 C.ar    1  UNL1        0.0494
     20 C          10.9282   -1.6222    0.0000 C.3     1  UNL1       -0.0649
     21 C           5.6366   -2.7822    0.0000 C.3     1  UNL1        0.0122
     22 C           2.6710   -0.8985    0.0000 C.ar    1  UNL1       -0.0522
     23 C           3.3762   -2.8309    0.0000 C.ar    1  UNL1       -0.0376
     24 C           2.0000   -1.6871    0.0000 C.ar    1  UNL1       -0.0611
     25 C           2.3550   -2.6598    0.0000 C.ar    1  UNL1       -0.0598
     26 H           8.8733   -1.1314    0.0000 H       1  UNL1        0.0309
     27 H           7.9057    1.3892    0.0000 H       1  UNL1        0.0369
     28 H           6.9986    1.6144    0.0000 H       1  UNL1        0.0494
     29 H           7.0221    0.1909    0.0000 H       1  UNL1        0.0525
     30 H           7.4070   -1.4536    0.0000 H       1  UNL1        0.0287
     31 H           8.2324   -1.4031    0.0000 H       1  UNL1        0.0287
     32 H          10.2062   -0.6196    0.0000 H       1  UNL1        0.0326
     33 H           4.1368    0.3639    0.0000 H       1  UNL1        0.0660
     34 H           5.7320    2.3129    0.0000 H       1  UNL1        0.1229
     35 H           8.2396    1.5039    0.0000 H       1  UNL1        0.0911
     36 H          10.6609   -0.1823    0.0000 H       1  UNL1        0.0564
     37 H          10.7888    0.6057    0.0000 H       1  UNL1        0.0564
     38 H           9.3324   -1.5656    0.0000 H       1  UNL1        0.0266
     39 H           9.9460   -2.0743    0.0000 H       1  UNL1        0.0266
     40 H           3.5158    1.1839    0.0000 H       1  UNL1        0.2103
     41 H           8.8687    2.8309    0.0000 H       1  UNL1        0.2125
     42 H          10.8241   -2.2334    0.0000 H       1  UNL1        0.0230
     43 H          11.5394   -1.7263    0.0000 H       1  UNL1        0.0230
     44 H          11.0322   -1.0110    0.0000 H       1  UNL1        0.0230
     45 H           5.1474   -3.1630    0.0000 H       1  UNL1        0.0456
     46 H           6.0175   -3.2714    0.0000 H       1  UNL1        0.0456
     47 H           6.1258   -2.4013    0.0000 H       1  UNL1        0.0456
     48 H           2.4652   -0.3136    0.0000 H       1  UNL1        0.0624
     49 H           3.5955   -3.4108    0.0000 H       1  UNL1        0.0638
     50 H           1.3897   -1.5776    0.0000 H       1  UNL1        0.0618
     51 H           1.9587   -3.1366    0.0000 H       1  UNL1        0.0618
@<TRIPOS>BOND
     1     1    13    1
     2     1    16    1
     3    12     2    1
     4     2    40    1
     5    13     3    1
     6     3    41    1
     7     4     8    1
     8     4     9    1
     9     4    34    1
    10     5    14   ar
    11     5    19   ar
    12     5    21    1
    13     6     7    1
    14     6    10    1
    15     6    11    1
    16     6    26    1
    17     7     8    1
    18     7    13    1
    19     7    27    1
    20     8    12    1
    21     8    28    1
    22     9    10    1
    23     9    14    1
    24     9    29    1
    25    10    30    1
    26    10    31    1
    27    11    16    1
    28    11    17    1
    29    11    32    1
    30    12    15    1
    31    12    33    1
    32    13    35    1
    33    14    15   ar
    34    15    18   ar
    35    16    36    1
    36    16    37    1
    37    17    20    1
    38    17    38    1
    39    17    39    1
    40    18    19   ar
    41    18    22   ar
    42    19    23   ar
    43    20    42    1
    44    20    43    1
    45    20    44    1
    46    21    45    1
    47    21    46    1
    48    21    47    1
    49    22    24   ar
    50    22    48    1
    51    23    25   ar
    52    23    49    1
    53    24    25   ar
    54    24    50    1
    55    25    51    1
