@<TRIPOS>MOLECULE
IMPHY006834
 93 99 0 0 0
SMALL
GASTEIGER

@<TRIPOS>ATOM
      1 O           7.8521   -1.6488    0.0000 O.3     1  UNL1       -0.3719
      2 O           8.1002    0.6295    0.0000 O.3     1  UNL1       -0.4548
      3 O           3.7319   -0.8673    0.0000 O.3     1  UNL1       -0.4608
      4 O           5.4900   -3.9397    0.0000 O.3     1  UNL1       -0.4608
      5 O           3.6562    4.7810    0.0000 O.2     1  UNL1       -0.4708
      6 O           8.9662   -0.8705    0.0000 O.2     1  UNL1       -0.2456
      7 O           2.8486   -2.3572    0.0000 O.2     1  UNL1       -0.2512
      8 O           3.7580   -3.9464    0.0000 O.2     1  UNL1       -0.2512
      9 C           5.5021   -0.8705    0.0000 C.3     1  UNL1        0.0148
     10 C           6.3682   -1.3705    0.0000 C.3     1  UNL1        0.0087
     11 C           5.5021    0.1295    0.0000 C.3     1  UNL1       -0.0193
     12 C           6.3682    0.6295    0.0000 C.3     1  UNL1        0.0323
     13 C           6.3842   -2.4120    0.0000 C.3     1  UNL1        0.0343
     14 C           7.2342   -0.8705    0.0000 C.3     1  UNL1        0.1005
     15 C           7.2342    0.1295    0.0000 C.3     1  UNL1        0.1389
     16 C           4.5921   -1.3773    0.0000 C.3     1  UNL1        0.1124
     17 C           4.5921    0.6364    0.0000 C.3     1  UNL1       -0.0479
     18 C           6.3842    1.6710    0.0000 C.2     1  UNL1       -0.0572
     19 C           5.4862    2.1988    0.0000 C.3     1  UNL1       -0.0033
     20 C           5.4862   -2.9397    0.0000 C.3     1  UNL1        0.1142
     21 C           7.3722   -2.5191    0.0000 C.3     1  UNL1        0.0573
     22 C           4.5841   -2.4189    0.0000 C.3     1  UNL1        0.0227
     23 C           4.5841    1.6780    0.0000 C.3     1  UNL1       -0.0430
     24 C           4.6361   -0.3705    0.0000 C.3     1  UNL1       -0.0555
     25 C           7.2342    1.1295    0.0000 C.3     1  UNL1       -0.0521
     26 C           5.7119    3.2093    0.0000 C.3     1  UNL1       -0.0004
     27 C           6.8942   -3.2722    0.0000 C.3     1  UNL1       -0.0537
     28 C           7.1572    2.3599    0.0000 C.2     1  UNL1       -0.0830
     29 C           6.7426    3.3087    0.0000 C.3     1  UNL1       -0.0267
     30 C           4.6240    2.7054    0.0000 C.3     1  UNL1       -0.0553
     31 C           5.0498    3.9588    0.0000 C.ar    1  UNL1       -0.0055
     32 C           8.9662    0.1295    0.0000 C.2     1  UNL1        0.3323
     33 C           2.8602   -1.3573    0.0000 C.2     1  UNL1        0.3042
     34 C           4.6259   -4.4431    0.0000 C.2     1  UNL1        0.3042
     35 C           5.2669    4.9349    0.0000 C.ar    1  UNL1       -0.0204
     36 C           4.0543    3.8636    0.0000 C.ar    1  UNL1        0.0951
     37 C           2.0000   -0.8473    0.0000 C.3     1  UNL1        0.0332
     38 C           9.8322    0.6295    0.0000 C.2     1  UNL1        0.0231
     39 C           4.4057    5.4431    0.0000 C.ar    1  UNL1        0.0920
     40 C           4.6298   -5.4431    0.0000 C.3     1  UNL1        0.0332
     41 C          10.6983    0.1295    0.0000 C.2     1  UNL1       -0.0478
     42 C          11.5643    0.6295    0.0000 C.ar    1  UNL1       -0.0248
     43 C          12.4303    0.1295    0.0000 C.ar    1  UNL1       -0.0546
     44 C          11.5643    1.6295    0.0000 C.ar    1  UNL1       -0.0546
     45 C          13.2964    0.6295    0.0000 C.ar    1  UNL1       -0.0612
     46 C          12.4303    2.1295    0.0000 C.ar    1  UNL1       -0.0612
     47 C          13.2964    1.6295    0.0000 C.ar    1  UNL1       -0.0617
     48 H           5.8336   -1.6846    0.0000 H       1  UNL1        0.0341
     49 H           6.2382   -0.2955    0.0000 H       1  UNL1        0.0317
     50 H           7.8196   -0.6664    0.0000 H       1  UNL1        0.0636
     51 H           7.7711   -0.1805    0.0000 H       1  UNL1        0.0769
     52 H           4.0522   -1.6821    0.0000 H       1  UNL1        0.0741
     53 H           3.9805    0.7377    0.0000 H       1  UNL1        0.0269
     54 H           4.3876    0.0511    0.0000 H       1  UNL1        0.0269
     55 H           6.0249   -3.2466    0.0000 H       1  UNL1        0.0741
     56 H           7.2249   -3.1214    0.0000 H       1  UNL1        0.0567
     57 H           7.9498   -2.7445    0.0000 H       1  UNL1        0.0567
     58 H           3.9741   -2.3081    0.0000 H       1  UNL1        0.0337
     59 H           4.3705   -3.0010    0.0000 H       1  UNL1        0.0337
     60 H           4.3705    2.2600    0.0000 H       1  UNL1        0.0274
     61 H           3.9741    1.5672    0.0000 H       1  UNL1        0.0274
     62 H           4.9461    0.1665    0.0000 H       1  UNL1        0.0236
     63 H           4.0992   -0.0605    0.0000 H       1  UNL1        0.0236
     64 H           4.3261   -0.9074    0.0000 H       1  UNL1        0.0236
     65 H           7.5442    0.5926    0.0000 H       1  UNL1        0.0239
     66 H           7.7711    1.4395    0.0000 H       1  UNL1        0.0239
     67 H           6.9242    1.6664    0.0000 H       1  UNL1        0.0239
     68 H           5.9393    3.7861    0.0000 H       1  UNL1        0.0361
     69 H           6.3609   -3.5884    0.0000 H       1  UNL1        0.0237
     70 H           7.2104   -3.8055    0.0000 H       1  UNL1        0.0237
     71 H           7.4275   -2.9560    0.0000 H       1  UNL1        0.0237
     72 H           7.7629    2.2274    0.0000 H       1  UNL1        0.0572
     73 H           7.3336    3.4960    0.0000 H       1  UNL1        0.0314
     74 H           6.6185    3.9162    0.0000 H       1  UNL1        0.0314
     75 H           4.9382    3.2400    0.0000 H       1  UNL1        0.0238
     76 H           4.0895    3.0196    0.0000 H       1  UNL1        0.0238
     77 H           4.3099    2.1709    0.0000 H       1  UNL1        0.0238
     78 H           5.8357    5.1817    0.0000 H       1  UNL1        0.0652
     79 H           3.7393    3.3296    0.0000 H       1  UNL1        0.1032
     80 H           2.3162   -0.3140    0.0000 H       1  UNL1        0.0342
     81 H           1.4667   -0.5311    0.0000 H       1  UNL1        0.0342
     82 H           1.6838   -1.3806    0.0000 H       1  UNL1        0.0342
     83 H           9.8322    1.2495    0.0000 H       1  UNL1        0.0689
     84 H           4.3467    6.0602    0.0000 H       1  UNL1        0.1029
     85 H           4.0098   -5.4454    0.0000 H       1  UNL1        0.0342
     86 H           4.6322   -6.0631    0.0000 H       1  UNL1        0.0342
     87 H           5.2498   -5.4407    0.0000 H       1  UNL1        0.0342
     88 H          10.6983   -0.4905    0.0000 H       1  UNL1        0.0626
     89 H          12.4303   -0.4905    0.0000 H       1  UNL1        0.0623
     90 H          11.0274    1.9395    0.0000 H       1  UNL1        0.0623
     91 H          13.8333    0.3195    0.0000 H       1  UNL1        0.0618
     92 H          12.4303    2.7495    0.0000 H       1  UNL1        0.0618
     93 H          13.8333    1.9395    0.0000 H       1  UNL1        0.0618
@<TRIPOS>BOND
     1     1    14    1
     2     1    21    1
     3    15     2    1
     4     2    32    1
     5    16     3    1
     6     3    33    1
     7    20     4    1
     8     4    34    1
     9     5    36   ar
    10     5    39   ar
    11     6    32    2
    12     7    33    2
    13     8    34    2
    14     9    10    1
    15     9    11    1
    16     9    16    1
    17     9    24    1
    18    10    13    1
    19    10    14    1
    20    10    48    1
    21    11    12    1
    22    11    17    1
    23    11    49    1
    24    12    15    1
    25    12    18    1
    26    12    25    1
    27    13    20    1
    28    13    21    1
    29    13    27    1
    30    14    15    1
    31    14    50    1
    32    15    51    1
    33    16    22    1
    34    16    52    1
    35    17    23    1
    36    17    53    1
    37    17    54    1
    38    18    19    1
    39    18    28    2
    40    19    23    1
    41    19    26    1
    42    19    30    1
    43    20    22    1
    44    20    55    1
    45    21    56    1
    46    21    57    1
    47    22    58    1
    48    22    59    1
    49    23    60    1
    50    23    61    1
    51    24    62    1
    52    24    63    1
    53    24    64    1
    54    25    65    1
    55    25    66    1
    56    25    67    1
    57    26    29    1
    58    26    31    1
    59    26    68    1
    60    27    69    1
    61    27    70    1
    62    27    71    1
    63    28    29    1
    64    28    72    1
    65    29    73    1
    66    29    74    1
    67    30    75    1
    68    30    76    1
    69    30    77    1
    70    31    35   ar
    71    31    36   ar
    72    32    38    1
    73    33    37    1
    74    34    40    1
    75    35    39   ar
    76    35    78    1
    77    36    79    1
    78    37    80    1
    79    37    81    1
    80    37    82    1
    81    38    41    2
    82    38    83    1
    83    39    84    1
    84    40    85    1
    85    40    86    1
    86    40    87    1
    87    41    42    1
    88    41    88    1
    89    42    43   ar
    90    42    44   ar
    91    43    45   ar
    92    43    89    1
    93    44    46   ar
    94    44    90    1
    95    45    47   ar
    96    45    91    1
    97    46    47   ar
    98    46    92    1
    99    47    93    1
