@<TRIPOS>MOLECULE
IMPHY012950
 54 57 0 0 0
SMALL
GASTEIGER

@<TRIPOS>ATOM
      1 O           5.1350   -1.6796    0.0000 O.3     1  UNL1       -0.3313
      2 O           6.8671   -1.6796    0.0000 O.3     1  UNL1       -0.4569
      3 O           5.1350   -4.6796    0.0000 O.3     1  UNL1       -0.3864
      4 O           3.4030   -3.6796    0.0000 O.3     1  UNL1       -0.3865
      5 O           6.8671   -3.6796    0.0000 O.3     1  UNL1       -0.3829
      6 O           2.5369   -2.1796    0.0000 O.3     1  UNL1       -0.3924
      7 O           8.6230    1.3829    0.0000 O.2     1  UNL1       -0.4470
      8 O           8.6370   -0.6486    0.0000 O.3     1  UNL1       -0.5009
      9 O           5.1208    1.3996    0.0000 O.3     1  UNL1       -0.5058
     10 O           7.7666    3.8863    0.0000 O.3     1  UNL1       -0.5007
     11 O           6.0308    2.8930    0.0000 O.2     1  UNL1       -0.2830
     12 O          12.0910    2.3696    0.0000 O.3     1  UNL1       -0.5033
     13 O          12.0987    4.3696    0.0000 O.3     1  UNL1       -0.5033
     14 C           5.1350   -3.6796    0.0000 C.3     1  UNL1        0.1152
     15 C           4.2690   -3.1796    0.0000 C.3     1  UNL1        0.1120
     16 C           6.0010   -3.1796    0.0000 C.3     1  UNL1        0.1454
     17 C           4.2690   -2.1796    0.0000 C.3     1  UNL1        0.1140
     18 C           6.0010   -2.1796    0.0000 C.3     1  UNL1        0.2310
     19 C           3.4030   -1.6796    0.0000 C.3     1  UNL1        0.0731
     20 C           6.8671   -0.6796    0.0000 C.ar    1  UNL1        0.1724
     21 C           7.7671   -0.1553    0.0000 C.ar    1  UNL1        0.2027
     22 C           5.9670   -0.1553    0.0000 C.ar    1  UNL1        0.0263
     23 C           7.7551    0.8863    0.0000 C.ar    1  UNL1        0.1879
     24 C           6.8910    1.3896    0.0000 C.ar    1  UNL1        0.1128
     25 C           5.9790    0.8863    0.0000 C.ar    1  UNL1        0.1350
     26 C           6.8948    2.3896    0.0000 C.ar    1  UNL1        0.2380
     27 C           8.6269    2.3829    0.0000 C.ar    1  UNL1        0.1809
     28 C           7.7628    2.8863    0.0000 C.ar    1  UNL1        0.2082
     29 C           9.4948    2.8796    0.0000 C.ar    1  UNL1        0.0247
     30 C          10.3589    2.3763    0.0000 C.ar    1  UNL1       -0.0057
     31 C           9.4987    3.8796    0.0000 C.ar    1  UNL1       -0.0473
     32 C          11.2269    2.8729    0.0000 C.ar    1  UNL1        0.1589
     33 C          10.3666    4.3762    0.0000 C.ar    1  UNL1       -0.0159
     34 C          11.2307    3.8729    0.0000 C.ar    1  UNL1        0.1583
     35 H           4.5981   -3.9896    0.0000 H       1  UNL1        0.0648
     36 H           4.2690   -3.7996    0.0000 H       1  UNL1        0.0647
     37 H           6.0010   -3.7996    0.0000 H       1  UNL1        0.0683
     38 H           4.2690   -1.5596    0.0000 H       1  UNL1        0.0647
     39 H           6.5380   -2.4896    0.0000 H       1  UNL1        0.1084
     40 H           3.8015   -1.2046    0.0000 H       1  UNL1        0.0584
     41 H           3.0044   -1.2046    0.0000 H       1  UNL1        0.0584
     42 H           4.5981   -4.9896    0.0000 H       1  UNL1        0.2100
     43 H           3.4030   -4.2996    0.0000 H       1  UNL1        0.2100
     44 H           6.8671   -4.2996    0.0000 H       1  UNL1        0.2102
     45 H           2.0000   -1.8696    0.0000 H       1  UNL1        0.2095
     46 H           5.4277   -0.4611    0.0000 H       1  UNL1        0.0692
     47 H           8.6418   -1.2686    0.0000 H       1  UNL1        0.2924
     48 H           4.5792    1.0979    0.0000 H       1  UNL1        0.2922
     49 H          10.3565    1.7563    0.0000 H       1  UNL1        0.0662
     50 H           8.9630    4.1916    0.0000 H       1  UNL1        0.0626
     51 H           7.2309    4.1983    0.0000 H       1  UNL1        0.2924
     52 H          10.3690    4.9962    0.0000 H       1  UNL1        0.0655
     53 H          12.6291    2.6775    0.0000 H       1  UNL1        0.2923
     54 H          12.1011    4.9896    0.0000 H       1  UNL1        0.2923
@<TRIPOS>BOND
     1     1    17    1
     2     1    18    1
     3    18     2    1
     4     2    20    1
     5    14     3    1
     6     3    42    1
     7    15     4    1
     8     4    43    1
     9    16     5    1
    10     5    44    1
    11     6    19    1
    12     6    45    1
    13     7    23   ar
    14     7    27   ar
    15     8    21    1
    16     8    47    1
    17     9    25    1
    18     9    48    1
    19    10    28    1
    20    10    51    1
    21    11    26    2
    22    12    32    1
    23    12    53    1
    24    13    34    1
    25    13    54    1
    26    14    15    1
    27    14    16    1
    28    14    35    1
    29    15    17    1
    30    15    36    1
    31    16    18    1
    32    16    37    1
    33    17    19    1
    34    17    38    1
    35    18    39    1
    36    19    40    1
    37    19    41    1
    38    20    21   ar
    39    20    22   ar
    40    21    23   ar
    41    22    25   ar
    42    22    46    1
    43    23    24   ar
    44    24    25   ar
    45    24    26   ar
    46    26    28   ar
    47    27    28   ar
    48    27    29    1
    49    29    30   ar
    50    29    31   ar
    51    30    32   ar
    52    30    49    1
    53    31    33   ar
    54    31    50    1
    55    32    34   ar
    56    33    34   ar
    57    33    52    1
