@<TRIPOS>MOLECULE
IMPHY005054
 75 78 0 0 0
SMALL
GASTEIGER

@<TRIPOS>ATOM
      1 O           5.1350    1.6215    0.0000 O.3     1  UNL1       -0.3330
      2 O           6.8040   -4.4316    0.0000 O.3     1  UNL1       -0.4492
      3 O           6.8671   -0.3785    0.0000 O.3     1  UNL1       -0.4489
      4 O           5.1350   -1.3785    0.0000 O.3     1  UNL1       -0.3878
      5 O           6.8671    1.6215    0.0000 O.3     1  UNL1       -0.4276
      6 O           7.6700   -0.9315    0.0000 O.3     1  UNL1       -0.4804
      7 O           2.5369    1.1215    0.0000 O.3     1  UNL1       -0.3925
      8 O           8.5359   -5.4315    0.0000 O.3     1  UNL1       -0.4654
      9 O           9.8627   -3.5449    0.0000 O.3     1  UNL1       -0.5030
     10 O           5.0719   -4.4316    0.0000 O.2     1  UNL1       -0.2508
     11 O           5.9378   -0.9315    0.0000 O.2     1  UNL1       -0.2507
     12 O           6.3431   -1.8182    0.0000 O.2     1  UNL1       -0.2449
     13 O           9.4019   -3.9315    0.0000 O.2     1  UNL1       -0.2466
     14 O          11.1483   -2.0128    0.0000 O.3     1  UNL1       -0.5009
     15 O          10.4643   -0.1334    0.0000 O.3     1  UNL1       -0.5032
     16 O           6.0010    3.1215    0.0000 O.2     1  UNL1       -0.2449
     17 O           8.5991    5.6215    0.0000 O.3     1  UNL1       -0.5032
     18 O          10.3312    2.6215    0.0000 O.3     1  UNL1       -0.5032
     19 O          10.3312    4.6215    0.0000 O.3     1  UNL1       -0.5009
     20 C           7.6700   -2.9315    0.0000 C.3     1  UNL1        0.0496
     21 C           6.8039   -2.4315    0.0000 C.3     1  UNL1        0.0771
     22 C           6.0010    0.1215    0.0000 C.3     1  UNL1        0.1909
     23 C           5.1350   -0.3785    0.0000 C.3     1  UNL1        0.1005
     24 C           7.6701   -3.9316    0.0000 C.3     1  UNL1        0.2064
     25 C           4.2690    0.1215    0.0000 C.3     1  UNL1        0.0055
     26 C           4.2690    1.1215    0.0000 C.3     1  UNL1        0.0883
     27 C           8.5359   -2.4315    0.0000 C.ar    1  UNL1        0.0198
     28 C           6.0010    1.1215    0.0000 C.3     1  UNL1        0.2451
     29 C           5.9379   -2.9315    0.0000 C.3     1  UNL1        0.0585
     30 C           8.1939   -1.4918    0.0000 C.ar    1  UNL1        0.0697
     31 C           5.9379   -3.9316    0.0000 C.2     1  UNL1        0.3087
     32 C           6.8039   -1.4315    0.0000 C.2     1  UNL1        0.3091
     33 C           3.4030    1.6215    0.0000 C.3     1  UNL1        0.0706
     34 C           9.5207   -2.6052    0.0000 C.ar    1  UNL1        0.1664
     35 C           7.2092   -1.3181    0.0000 C.2     1  UNL1        0.3402
     36 C           8.5359   -4.4315    0.0000 C.2     1  UNL1        0.3488
     37 C           8.8367   -0.7258    0.0000 C.ar    1  UNL1       -0.0020
     38 C          10.1635   -1.8391    0.0000 C.ar    1  UNL1        0.2009
     39 C           9.8215   -0.8994    0.0000 C.ar    1  UNL1        0.1628
     40 C           6.8671    2.6215    0.0000 C.2     1  UNL1        0.3417
     41 C           7.7331    3.1215    0.0000 C.ar    1  UNL1        0.0662
     42 C           9.4019   -5.9315    0.0000 C.3     1  UNL1        0.0818
     43 C           8.5991    2.6215    0.0000 C.ar    1  UNL1       -0.0023
     44 C           7.7331    4.1215    0.0000 C.ar    1  UNL1       -0.0023
     45 C           8.5991    4.6215    0.0000 C.ar    1  UNL1        0.1628
     46 C           9.4651    3.1215    0.0000 C.ar    1  UNL1        0.1628
     47 C           9.4651    4.1215    0.0000 C.ar    1  UNL1        0.2006
     48 H           8.2070   -3.2415    0.0000 H       1  UNL1        0.0400
     49 H           7.3408   -2.1215    0.0000 H       1  UNL1        0.0426
     50 H           6.0010   -0.4985    0.0000 H       1  UNL1        0.0824
     51 H           4.5981   -0.6885    0.0000 H       1  UNL1        0.0633
     52 H           7.6700   -4.5516    0.0000 H       1  UNL1        0.0859
     53 H           3.6584    0.2292    0.0000 H       1  UNL1        0.0317
     54 H           4.0569   -0.4611    0.0000 H       1  UNL1        0.0317
     55 H           4.2690    1.7415    0.0000 H       1  UNL1        0.0621
     56 H           6.0010    1.7415    0.0000 H       1  UNL1        0.1097
     57 H           5.7258   -2.3489    0.0000 H       1  UNL1        0.0386
     58 H           5.3273   -3.0392    0.0000 H       1  UNL1        0.0386
     59 H           3.8015    2.0965    0.0000 H       1  UNL1        0.0583
     60 H           3.0044    2.0965    0.0000 H       1  UNL1        0.0583
     61 H           8.6246   -0.1432    0.0000 H       1  UNL1        0.0663
     62 H           4.5981   -1.6885    0.0000 H       1  UNL1        0.2099
     63 H           7.6700   -0.3115    0.0000 H       1  UNL1        0.2951
     64 H           2.0000    1.4315    0.0000 H       1  UNL1        0.2095
     65 H          10.4733   -3.6525    0.0000 H       1  UNL1        0.2923
     66 H          11.5468   -1.5378    0.0000 H       1  UNL1        0.2924
     67 H          10.2522    0.4492    0.0000 H       1  UNL1        0.2923
     68 H           9.0919   -6.4684    0.0000 H       1  UNL1        0.0661
     69 H           9.9389   -6.2415    0.0000 H       1  UNL1        0.0661
     70 H           9.7119   -5.3946    0.0000 H       1  UNL1        0.0661
     71 H           8.5991    2.0015    0.0000 H       1  UNL1        0.0663
     72 H           7.1962    4.4315    0.0000 H       1  UNL1        0.0663
     73 H           8.0622    5.9315    0.0000 H       1  UNL1        0.2923
     74 H          10.8681    2.9315    0.0000 H       1  UNL1        0.2923
     75 H          10.3312    5.2415    0.0000 H       1  UNL1        0.2924
@<TRIPOS>BOND
     1     1    26    1
     2     1    28    1
     3     2    24    1
     4     2    31    1
     5     3    22    1
     6     3    35    1
     7     4    23    1
     8     4    62    1
     9     5    28    1
    10     5    40    1
    11     6    32    1
    12     6    63    1
    13     7    33    1
    14     7    64    1
    15     8    36    1
    16     8    42    1
    17     9    34    1
    18     9    65    1
    19    10    31    2
    20    11    32    2
    21    12    35    2
    22    13    36    2
    23    14    38    1
    24    14    66    1
    25    15    39    1
    26    15    67    1
    27    16    40    2
    28    17    45    1
    29    17    73    1
    30    18    46    1
    31    18    74    1
    32    19    47    1
    33    19    75    1
    34    20    21    1
    35    20    24    1
    36    20    27    1
    37    20    48    1
    38    21    29    1
    39    21    32    1
    40    21    49    1
    41    22    23    1
    42    22    28    1
    43    22    50    1
    44    23    25    1
    45    23    51    1
    46    24    36    1
    47    24    52    1
    48    25    26    1
    49    25    53    1
    50    25    54    1
    51    26    33    1
    52    26    55    1
    53    27    30   ar
    54    27    34   ar
    55    28    56    1
    56    29    31    1
    57    29    57    1
    58    29    58    1
    59    30    35    1
    60    30    37   ar
    61    33    59    1
    62    33    60    1
    63    34    38   ar
    64    37    39   ar
    65    37    61    1
    66    38    39   ar
    67    40    41    1
    68    41    43   ar
    69    41    44   ar
    70    42    68    1
    71    42    69    1
    72    42    70    1
    73    43    46   ar
    74    43    71    1
    75    44    45   ar
    76    44    72    1
    77    45    47   ar
    78    46    47   ar
