@<TRIPOS>MOLECULE
IMPHY009521
 50 53 0 0 0
SMALL
GASTEIGER

@<TRIPOS>ATOM
      1 O           2.5836    0.3047    0.0000 O.3     1  UNL1       -0.4526
      2 O           2.5836   -1.3047    0.0000 O.3     1  UNL1       -0.4526
      3 O          10.5382   -1.1953    0.0000 O.3     1  UNL1       -0.4517
      4 O          10.5382   -2.8047    0.0000 O.3     1  UNL1       -0.4526
      5 O           6.9939    0.0000    0.0000 O.2     1  UNL1       -0.2917
      6 O           9.5920    0.5000    0.0000 O.3     1  UNL1       -0.4770
      7 O           7.8600    0.5000    0.0000 O.2     1  UNL1       -0.2450
      8 N           5.2619    2.0000    0.0000 N.3     1  UNL1       -0.3080
      9 C           5.2619    0.0000    0.0000 C.ar    1  UNL1       -0.0389
     10 C           5.2619   -1.0000    0.0000 C.ar    1  UNL1       -0.0330
     11 C           6.1279    0.5000    0.0000 C.3     1  UNL1       -0.0145
     12 C           6.1279   -1.5000    0.0000 C.3     1  UNL1        0.0360
     13 C           6.1279    1.5000    0.0000 C.3     1  UNL1        0.0023
     14 C           4.3958    0.5000    0.0000 C.ar    1  UNL1       -0.0127
     15 C           4.3958   -1.5000    0.0000 C.ar    1  UNL1       -0.0123
     16 C           3.5298    0.0000    0.0000 C.ar    1  UNL1        0.1665
     17 C           3.5298   -1.0000    0.0000 C.ar    1  UNL1        0.1665
     18 C           6.9939   -1.0000    0.0000 C.2     1  UNL1        0.1683
     19 C           7.8600   -1.5000    0.0000 C.ar    1  UNL1        0.0355
     20 C           8.7260   -1.0000    0.0000 C.ar    1  UNL1        0.1146
     21 C           2.0000   -0.5000    0.0000 C.3     1  UNL1        0.2332
     22 C           9.5920   -1.5000    0.0000 C.ar    1  UNL1        0.1808
     23 C           7.8600   -2.5000    0.0000 C.ar    1  UNL1       -0.0468
     24 C           9.5920   -2.5000    0.0000 C.ar    1  UNL1        0.1671
     25 C           5.2619    3.0000    0.0000 C.3     1  UNL1       -0.0130
     26 C           4.3958    1.5000    0.0000 C.3     1  UNL1       -0.0130
     27 C           8.7260   -3.0000    0.0000 C.ar    1  UNL1       -0.0154
     28 C          11.1218   -2.0000    0.0000 C.3     1  UNL1        0.2333
     29 C           8.7260    0.0000    0.0000 C.2     1  UNL1        0.3412
     30 H           6.3400   -0.0826    0.0000 H       1  UNL1        0.0326
     31 H           6.7385    0.6077    0.0000 H       1  UNL1        0.0326
     32 H           5.7294   -1.9750    0.0000 H       1  UNL1        0.0394
     33 H           6.5264   -1.9750    0.0000 H       1  UNL1        0.0394
     34 H           6.7385    1.3923    0.0000 H       1  UNL1        0.0429
     35 H           6.3400    2.0826    0.0000 H       1  UNL1        0.0429
     36 H           4.3958    1.1200    0.0000 H       1  UNL1        0.0658
     37 H           4.3958   -2.1200    0.0000 H       1  UNL1        0.0658
     38 H           1.5391   -0.0853    0.0000 H       1  UNL1        0.1166
     39 H           1.5391   -0.9147    0.0000 H       1  UNL1        0.1166
     40 H           7.3230   -2.8100    0.0000 H       1  UNL1        0.0626
     41 H           5.8819    3.0000    0.0000 H       1  UNL1        0.0391
     42 H           4.0858    2.0369    0.0000 H       1  UNL1        0.0391
     43 H           3.8589    1.1900    0.0000 H       1  UNL1        0.0391
     44 H           4.7058    0.9631    0.0000 H       1  UNL1        0.0391
     45 H           5.2619    3.6200    0.0000 H       1  UNL1        0.0391
     46 H           4.6419    3.0000    0.0000 H       1  UNL1        0.0391
     47 H           8.7260   -3.6200    0.0000 H       1  UNL1        0.0655
     48 H          11.5827   -2.4147    0.0000 H       1  UNL1        0.1166
     49 H          11.5827   -1.5853    0.0000 H       1  UNL1        0.1166
     50 H           9.5920    1.1200    0.0000 H       1  UNL1        0.2954
@<TRIPOS>BOND
     1     1    16    1
     2     1    21    1
     3     2    17    1
     4     2    21    1
     5     3    22    1
     6     3    28    1
     7     4    24    1
     8     4    28    1
     9     5    18    2
    10     6    29    1
    11     6    50    1
    12     7    29    2
    13     8    13    1
    14     8    25    1
    15     8    26    1
    16     9    10   ar
    17     9    11    1
    18     9    14   ar
    19    10    12    1
    20    10    15   ar
    21    11    13    1
    22    11    30    1
    23    11    31    1
    24    12    18    1
    25    12    32    1
    26    12    33    1
    27    13    34    1
    28    13    35    1
    29    14    16   ar
    30    14    36    1
    31    15    17   ar
    32    15    37    1
    33    16    17   ar
    34    18    19    1
    35    19    20   ar
    36    19    23   ar
    37    20    22   ar
    38    20    29    1
    39    21    38    1
    40    21    39    1
    41    22    24   ar
    42    23    27   ar
    43    23    40    1
    44    24    27   ar
    45    25    41    1
    46    25    45    1
    47    25    46    1
    48    26    42    1
    49    26    43    1
    50    26    44    1
    51    27    47    1
    52    28    48    1
    53    28    49    1
