@<TRIPOS>MOLECULE
IMPHY006505
 41 43 0 0 0
SMALL
GASTEIGER

@<TRIPOS>ATOM
      1 O           7.9244   -1.0315    0.0000 O.2     1  UNL1       -0.2708
      2 O           9.7884    4.6716    0.0000 O.3     1  UNL1       -0.5068
      3 N           4.6783   -4.2101    0.0000 N.ar    1  UNL1       -0.3604
      4 N           6.2781   -0.4934    0.0000 N.am    1  UNL1       -0.3115
      5 C           4.6783   -2.6007    0.0000 C.ar    1  UNL1       -0.0209
      6 C           4.9889   -1.6502    0.0000 C.3     1  UNL1       -0.0101
      7 C           3.7320   -2.9054    0.0000 C.ar    1  UNL1        0.0029
      8 C           3.7320   -3.9054    0.0000 C.ar    1  UNL1        0.0467
      9 C           5.9674   -1.4439    0.0000 C.3     1  UNL1        0.0159
     10 C           5.2619   -3.4054    0.0000 C.ar    1  UNL1        0.0060
     11 C           2.8660   -2.4054    0.0000 C.ar    1  UNL1       -0.0523
     12 C           2.8660   -4.4054    0.0000 C.ar    1  UNL1       -0.0378
     13 C           2.0000   -2.9054    0.0000 C.ar    1  UNL1       -0.0611
     14 C           2.0000   -3.9054    0.0000 C.ar    1  UNL1       -0.0598
     15 C           7.2566   -0.2872    0.0000 C.2     1  UNL1        0.2369
     16 C           7.5673    0.6633    0.0000 C.2     1  UNL1        0.0007
     17 C           8.8564    1.8200    0.0000 C.ar    1  UNL1       -0.0247
     18 C           8.5458    0.8695    0.0000 C.2     1  UNL1       -0.0497
     19 C           9.8349    2.0263    0.0000 C.ar    1  UNL1       -0.0511
     20 C           8.1886    2.5644    0.0000 C.ar    1  UNL1       -0.0511
     21 C          10.1456    2.9768    0.0000 C.ar    1  UNL1       -0.0196
     22 C           8.4993    3.5149    0.0000 C.ar    1  UNL1       -0.0196
     23 C           9.4778    3.7211    0.0000 C.ar    1  UNL1        0.1169
     24 H           4.9684   -1.0305    0.0000 H       1  UNL1        0.0329
     25 H           4.3751   -1.5628    0.0000 H       1  UNL1        0.0329
     26 H           5.9880   -2.0636    0.0000 H       1  UNL1        0.0465
     27 H           6.5812   -1.5313    0.0000 H       1  UNL1        0.0465
     28 H           5.8819   -3.4054    0.0000 H       1  UNL1        0.0810
     29 H           4.8709   -4.7995    0.0000 H       1  UNL1        0.1653
     30 H           2.8660   -1.7854    0.0000 H       1  UNL1        0.0624
     31 H           2.8660   -5.0254    0.0000 H       1  UNL1        0.0638
     32 H           5.8640   -0.0320    0.0000 H       1  UNL1        0.1490
     33 H           1.4631   -2.5954    0.0000 H       1  UNL1        0.0618
     34 H           1.4631   -4.2154    0.0000 H       1  UNL1        0.0618
     35 H           7.1532    1.1248    0.0000 H       1  UNL1        0.0669
     36 H           8.9598    0.4081    0.0000 H       1  UNL1        0.0625
     37 H          10.2490    1.5648    0.0000 H       1  UNL1        0.0625
     38 H           7.5819    2.4365    0.0000 H       1  UNL1        0.0625
     39 H          10.7523    3.1046    0.0000 H       1  UNL1        0.0654
     40 H           8.0852    3.9763    0.0000 H       1  UNL1        0.0654
     41 H          10.3951    4.7995    0.0000 H       1  UNL1        0.2921
@<TRIPOS>BOND
     1     1    15    2
     2     2    23    1
     3     2    41    1
     4     3     8   ar
     5     3    10   ar
     6     3    29    1
     7     4     9    1
     8     4    15   am
     9     4    32    1
    10     5     6    1
    11     5     7   ar
    12     5    10   ar
    13     6     9    1
    14     6    24    1
    15     6    25    1
    16     7     8   ar
    17     7    11   ar
    18     8    12   ar
    19     9    26    1
    20     9    27    1
    21    10    28    1
    22    11    13   ar
    23    11    30    1
    24    12    14   ar
    25    12    31    1
    26    13    14   ar
    27    13    33    1
    28    14    34    1
    29    15    16    1
    30    16    18    2
    31    16    35    1
    32    17    18    1
    33    17    19   ar
    34    17    20   ar
    35    18    36    1
    36    19    21   ar
    37    19    37    1
    38    20    22   ar
    39    20    38    1
    40    21    23   ar
    41    21    39    1
    42    22    23   ar
    43    22    40    1
