@<TRIPOS>MOLECULE
IMPHY017774
 14 13 0 0 0
SMALL
GASTEIGER

@<TRIPOS>ATOM
      1 O           2.8660   -0.7500    0.0000 O.2     1  UNL1       -0.2974
      2 C           3.7320    0.7500    0.0000 C.3     1  UNL1        0.0235
      3 C           2.8660    0.2500    0.0000 C.2     1  UNL1        0.1340
      4 C           2.0000    0.7500    0.0000 C.3     1  UNL1       -0.0058
      5 C           4.5981    0.2500    0.0000 C.2     1  UNL1       -0.0841
      6 C           5.4641    0.7500    0.0000 C.2     1  UNL1       -0.1022
      7 H           4.1306    1.2250    0.0000 H       1  UNL1        0.0384
      8 H           3.3335    1.2250    0.0000 H       1  UNL1        0.0384
      9 H           2.3100    1.2869    0.0000 H       1  UNL1        0.0306
     10 H           1.4631    1.0600    0.0000 H       1  UNL1        0.0306
     11 H           1.6900    0.2131    0.0000 H       1  UNL1        0.0306
     12 H           4.5981   -0.3700    0.0000 H       1  UNL1        0.0570
     13 H           6.0010    0.4400    0.0000 H       1  UNL1        0.0532
     14 H           5.4641    1.3700    0.0000 H       1  UNL1        0.0532
@<TRIPOS>BOND
     1     1     3    2
     2     2     3    1
     3     2     5    1
     4     2     7    1
     5     2     8    1
     6     3     4    1
     7     4     9    1
     8     4    10    1
     9     4    11    1
    10     5     6    2
    11     5    12    1
    12     6    13    1
    13     6    14    1
