@<TRIPOS>MOLECULE
IMPHY013813
 21 23 0 0 0
SMALL
GASTEIGER

@<TRIPOS>ATOM
      1 N           4.5274    0.8518    0.0000 N.ar    1  UNL1       -0.3391
      2 N           6.3518    0.4963    0.0000 N.ar    1  UNL1       -0.2375
      3 C           4.0274   -0.6871    0.0000 C.ar    1  UNL1        0.0090
      4 C           5.0274   -0.6871    0.0000 C.ar    1  UNL1        0.0264
      5 C           3.7183    0.2640    0.0000 C.ar    1  UNL1        0.0486
      6 C           5.3364    0.2640    0.0000 C.ar    1  UNL1        0.1391
      7 C           3.3424   -1.4718    0.0000 C.ar    1  UNL1       -0.0520
      8 C           2.7029    0.4963    0.0000 C.ar    1  UNL1       -0.0377
      9 C           5.7123   -1.4718    0.0000 C.ar    1  UNL1       -0.0490
     10 C           2.3219   -1.2631    0.0000 C.ar    1  UNL1       -0.0611
     11 C           2.0000   -0.2724    0.0000 C.ar    1  UNL1       -0.0598
     12 C           6.7328   -1.2631    0.0000 C.ar    1  UNL1       -0.0429
     13 C           7.0547   -0.2724    0.0000 C.ar    1  UNL1        0.0299
     14 H           4.5274    1.4718    0.0000 H       1  UNL1        0.1673
     15 H           3.5408   -2.0592    0.0000 H       1  UNL1        0.0624
     16 H           2.5182    1.0881    0.0000 H       1  UNL1        0.0638
     17 H           5.5139   -2.0592    0.0000 H       1  UNL1        0.0625
     18 H           1.9088   -1.7254    0.0000 H       1  UNL1        0.0618
     19 H           1.3940   -0.1412    0.0000 H       1  UNL1        0.0618
     20 H           7.1459   -1.7254    0.0000 H       1  UNL1        0.0633
     21 H           7.6607   -0.1412    0.0000 H       1  UNL1        0.0830
@<TRIPOS>BOND
     1     1     5   ar
     2     1     6   ar
     3     1    14    1
     4     2     6   ar
     5     2    13   ar
     6     3     4   ar
     7     3     5   ar
     8     3     7   ar
     9     4     6   ar
    10     4     9   ar
    11     5     8   ar
    12     7    10   ar
    13     7    15    1
    14     8    11   ar
    15     8    16    1
    16     9    12   ar
    17     9    17    1
    18    10    11   ar
    19    10    18    1
    20    11    19    1
    21    12    13   ar
    22    12    20    1
    23    13    21    1
