@<TRIPOS>MOLECULE
IMPHY002952
 121 124 0 0 0
SMALL
GASTEIGER

@<TRIPOS>ATOM
      1 O          15.8563   -3.6598    0.0000 O.3     1  UNL1       -0.4610
      2 O          14.9961   -2.1564    0.0000 O.2     1  UNL1       -0.2508
      3 C          21.2494   -0.6074    0.0000 C.3     1  UNL1       -0.0259
      4 C          21.2494   -1.6074    0.0000 C.3     1  UNL1       -0.0320
      5 C          20.3834   -2.1074    0.0000 C.3     1  UNL1       -0.0307
      6 C          19.5173   -1.6074    0.0000 C.3     1  UNL1       -0.0285
      7 C          22.1956   -0.3027    0.0000 C.3     1  UNL1       -0.0328
      8 C          20.3834   -0.1074    0.0000 C.3     1  UNL1       -0.0468
      9 C          18.6073   -2.1143    0.0000 C.3     1  UNL1       -0.0077
     10 C          22.1956   -1.9122    0.0000 C.3     1  UNL1       -0.0492
     11 C          19.5173   -0.6074    0.0000 C.3     1  UNL1       -0.0486
     12 C          22.7792   -1.1074    0.0000 C.3     1  UNL1       -0.0492
     13 C          20.3994   -3.1489    0.0000 C.3     1  UNL1       -0.0311
     14 C          22.5063    0.6478    0.0000 C.3     1  UNL1       -0.0405
     15 C          21.2494    0.3926    0.0000 C.3     1  UNL1       -0.0590
     16 C          18.5993   -3.1559    0.0000 C.2     1  UNL1       -0.0638
     17 C          17.6805   -1.5502    0.0000 C.3     1  UNL1       -0.0403
     18 C          19.5014   -3.6767    0.0000 C.2     1  UNL1       -0.0838
     19 C          18.6150   -1.1143    0.0000 C.3     1  UNL1       -0.0556
     20 C          17.6639   -3.7056    0.0000 C.3     1  UNL1        0.0061
     21 C          16.7326   -2.0781    0.0000 C.3     1  UNL1       -0.0146
     22 C          23.4848    0.8540    0.0000 C.3     1  UNL1       -0.0502
     23 C          16.7242   -3.1631    0.0000 C.3     1  UNL1        0.1068
     24 C          21.8384    1.3921    0.0000 C.3     1  UNL1       -0.0621
     25 C          23.7954    1.8046    0.0000 C.3     1  UNL1       -0.0526
     26 C          24.7739    2.0108    0.0000 C.3     1  UNL1       -0.0507
     27 C          25.0846    2.9613    0.0000 C.3     1  UNL1       -0.0467
     28 C          14.9922   -3.1564    0.0000 C.2     1  UNL1        0.3073
     29 C          14.1243   -3.6531    0.0000 C.3     1  UNL1        0.0449
     30 C          26.0631    3.1675    0.0000 C.3     1  UNL1       -0.0627
     31 C          24.4168    3.7056    0.0000 C.3     1  UNL1       -0.0627
     32 C          13.2602   -3.1498    0.0000 C.3     1  UNL1       -0.0430
     33 C          12.3922   -3.6464    0.0000 C.3     1  UNL1       -0.0526
     34 C          11.5281   -3.1431    0.0000 C.3     1  UNL1       -0.0530
     35 C          10.6602   -3.6397    0.0000 C.3     1  UNL1       -0.0531
     36 C           9.7961   -3.1364    0.0000 C.3     1  UNL1       -0.0531
     37 C           8.9282   -3.6331    0.0000 C.3     1  UNL1       -0.0531
     38 C           8.0641   -3.1297    0.0000 C.3     1  UNL1       -0.0531
     39 C           7.1961   -3.6264    0.0000 C.3     1  UNL1       -0.0531
     40 C           6.3320   -3.1230    0.0000 C.3     1  UNL1       -0.0531
     41 C           5.4641   -3.6197    0.0000 C.3     1  UNL1       -0.0531
     42 C           4.6000   -3.1164    0.0000 C.3     1  UNL1       -0.0531
     43 C           3.7320   -3.6130    0.0000 C.3     1  UNL1       -0.0533
     44 C           2.8680   -3.1097    0.0000 C.3     1  UNL1       -0.0559
     45 C           2.0000   -3.6064    0.0000 C.3     1  UNL1       -0.0653
     46 H          21.3393   -2.4527    0.0000 H       1  UNL1        0.0309
     47 H          21.1227   -2.5267    0.0000 H       1  UNL1        0.0309
     48 H          20.2535   -1.1824    0.0000 H       1  UNL1        0.0312
     49 H          23.0353   -0.1708    0.0000 H       1  UNL1        0.0309
     50 H          20.7819    0.3675    0.0000 H       1  UNL1        0.0271
     51 H          19.9848    0.3675    0.0000 H       1  UNL1        0.0271
     52 H          21.9446   -2.4791    0.0000 H       1  UNL1        0.0268
     53 H          22.7330   -2.2214    0.0000 H       1  UNL1        0.0268
     54 H          19.3053   -0.0248    0.0000 H       1  UNL1        0.0268
     55 H          18.9068   -0.7151    0.0000 H       1  UNL1        0.0268
     56 H          23.2401   -1.5222    0.0000 H       1  UNL1        0.0268
     57 H          23.2401   -0.6927    0.0000 H       1  UNL1        0.0268
     58 H          20.6175   -3.7293    0.0000 H       1  UNL1        0.0310
     59 H          21.0086   -3.0334    0.0000 H       1  UNL1        0.0310
     60 H          21.8996    0.5200    0.0000 H       1  UNL1        0.0301
     61 H          21.8694    0.3926    0.0000 H       1  UNL1        0.0235
     62 H          21.2494    1.0126    0.0000 H       1  UNL1        0.0235
     63 H          20.6294    0.3926    0.0000 H       1  UNL1        0.0235
     64 H          18.0887   -1.0835    0.0000 H       1  UNL1        0.0275
     65 H          17.2906   -1.0682    0.0000 H       1  UNL1        0.0275
     66 H          19.5038   -4.2967    0.0000 H       1  UNL1        0.0572
     67 H          19.2350   -1.1191    0.0000 H       1  UNL1        0.0238
     68 H          18.6198   -0.4943    0.0000 H       1  UNL1        0.0238
     69 H          17.9951   -1.1095    0.0000 H       1  UNL1        0.0238
     70 H          17.2666   -4.1816    0.0000 H       1  UNL1        0.0346
     71 H          18.0648   -4.1785    0.0000 H       1  UNL1        0.0346
     72 H          16.5281   -1.4929    0.0000 H       1  UNL1        0.0301
     73 H          16.1210   -2.1795    0.0000 H       1  UNL1        0.0301
     74 H          23.5053    0.2344    0.0000 H       1  UNL1        0.0268
     75 H          24.0986    0.7667    0.0000 H       1  UNL1        0.0268
     76 H          16.1891   -2.8500    0.0000 H       1  UNL1        0.0737
     77 H          22.2999    1.8062    0.0000 H       1  UNL1        0.0233
     78 H          21.4244    1.8536    0.0000 H       1  UNL1        0.0233
     79 H          21.3770    0.9781    0.0000 H       1  UNL1        0.0233
     80 H          23.7749    2.4242    0.0000 H       1  UNL1        0.0265
     81 H          23.1816    1.8919    0.0000 H       1  UNL1        0.0265
     82 H          24.7945    1.3911    0.0000 H       1  UNL1        0.0268
     83 H          25.3878    1.9234    0.0000 H       1  UNL1        0.0268
     84 H          24.4779    2.8334    0.0000 H       1  UNL1        0.0295
     85 H          13.7239   -4.1265    0.0000 H       1  UNL1        0.0377
     86 H          14.5210   -4.1296    0.0000 H       1  UNL1        0.0377
     87 H          24.8782    4.1197    0.0000 H       1  UNL1        0.0232
     88 H          26.1910    2.5608    0.0000 H       1  UNL1        0.0232
     89 H          26.6698    3.2954    0.0000 H       1  UNL1        0.0232
     90 H          25.9353    3.7742    0.0000 H       1  UNL1        0.0232
     91 H          24.0027    4.1671    0.0000 H       1  UNL1        0.0232
     92 H          23.9553    3.2915    0.0000 H       1  UNL1        0.0232
     93 H          13.6605   -2.6763    0.0000 H       1  UNL1        0.0270
     94 H          12.8635   -2.6733    0.0000 H       1  UNL1        0.0270
     95 H          11.9919   -4.1198    0.0000 H       1  UNL1        0.0265
     96 H          12.7889   -4.1229    0.0000 H       1  UNL1        0.0265
     97 H          11.9285   -2.6697    0.0000 H       1  UNL1        0.0265
     98 H          11.1314   -2.6666    0.0000 H       1  UNL1        0.0265
     99 H          10.2598   -4.1131    0.0000 H       1  UNL1        0.0265
    100 H          11.0569   -4.1162    0.0000 H       1  UNL1        0.0265
    101 H          10.1965   -2.6630    0.0000 H       1  UNL1        0.0265
    102 H           9.3994   -2.6599    0.0000 H       1  UNL1        0.0265
    103 H           8.5278   -4.1065    0.0000 H       1  UNL1        0.0265
    104 H           9.3248   -4.1095    0.0000 H       1  UNL1        0.0265
    105 H           8.4644   -2.6563    0.0000 H       1  UNL1        0.0265
    106 H           7.6674   -2.6532    0.0000 H       1  UNL1        0.0265
    107 H           6.7958   -4.0998    0.0000 H       1  UNL1        0.0265
    108 H           7.5928   -4.1029    0.0000 H       1  UNL1        0.0265
    109 H           6.7324   -2.6496    0.0000 H       1  UNL1        0.0265
    110 H           5.9353   -2.6466    0.0000 H       1  UNL1        0.0265
    111 H           5.0637   -4.0931    0.0000 H       1  UNL1        0.0265
    112 H           5.8608   -4.0962    0.0000 H       1  UNL1        0.0265
    113 H           5.0003   -2.6430    0.0000 H       1  UNL1        0.0265
    114 H           4.2033   -2.6399    0.0000 H       1  UNL1        0.0265
    115 H           3.3317   -4.0864    0.0000 H       1  UNL1        0.0265
    116 H           4.1287   -4.0895    0.0000 H       1  UNL1        0.0265
    117 H           3.2683   -2.6363    0.0000 H       1  UNL1        0.0263
    118 H           2.4712   -2.6332    0.0000 H       1  UNL1        0.0263
    119 H           1.6921   -3.0682    0.0000 H       1  UNL1        0.0230
    120 H           1.4619   -3.9143    0.0000 H       1  UNL1        0.0230
    121 H           2.3079   -4.1445    0.0000 H       1  UNL1        0.0230
@<TRIPOS>BOND
     1    23     1    1
     2     1    28    1
     3     2    28    2
     4     3     4    1
     5     3     7    1
     6     3     8    1
     7     3    15    1
     8     4     5    1
     9     4    10    1
    10     4    46    1
    11     5     6    1
    12     5    13    1
    13     5    47    1
    14     6     9    1
    15     6    11    1
    16     6    48    1
    17     7    12    1
    18     7    14    1
    19     7    49    1
    20     8    11    1
    21     8    50    1
    22     8    51    1
    23     9    16    1
    24     9    17    1
    25     9    19    1
    26    10    12    1
    27    10    52    1
    28    10    53    1
    29    11    54    1
    30    11    55    1
    31    12    56    1
    32    12    57    1
    33    13    18    1
    34    13    58    1
    35    13    59    1
    36    14    22    1
    37    14    24    1
    38    14    60    1
    39    15    61    1
    40    15    62    1
    41    15    63    1
    42    16    18    2
    43    16    20    1
    44    17    21    1
    45    17    64    1
    46    17    65    1
    47    18    66    1
    48    19    67    1
    49    19    68    1
    50    19    69    1
    51    20    23    1
    52    20    70    1
    53    20    71    1
    54    21    23    1
    55    21    72    1
    56    21    73    1
    57    22    25    1
    58    22    74    1
    59    22    75    1
    60    23    76    1
    61    24    77    1
    62    24    78    1
    63    24    79    1
    64    25    26    1
    65    25    80    1
    66    25    81    1
    67    26    27    1
    68    26    82    1
    69    26    83    1
    70    27    30    1
    71    27    31    1
    72    27    84    1
    73    28    29    1
    74    29    32    1
    75    29    85    1
    76    29    86    1
    77    30    88    1
    78    30    89    1
    79    30    90    1
    80    31    87    1
    81    31    91    1
    82    31    92    1
    83    32    33    1
    84    32    93    1
    85    32    94    1
    86    33    34    1
    87    33    95    1
    88    33    96    1
    89    34    35    1
    90    34    97    1
    91    34    98    1
    92    35    36    1
    93    35    99    1
    94    35   100    1
    95    36    37    1
    96    36   101    1
    97    36   102    1
    98    37    38    1
    99    37   103    1
   100    37   104    1
   101    38    39    1
   102    38   105    1
   103    38   106    1
   104    39    40    1
   105    39   107    1
   106    39   108    1
   107    40    41    1
   108    40   109    1
   109    40   110    1
   110    41    42    1
   111    41   111    1
   112    41   112    1
   113    42    43    1
   114    42   113    1
   115    42   114    1
   116    43    44    1
   117    43   115    1
   118    43   116    1
   119    44    45    1
   120    44   117    1
   121    44   118    1
   122    45   119    1
   123    45   120    1
   124    45   121    1
