@<TRIPOS>MOLECULE
IMPHY002626
 39 39 0 0 0
SMALL
GASTEIGER

@<TRIPOS>ATOM
      1 O           6.3301    1.5600    0.0000 O.2     1  UNL1       -0.2968
      2 O           4.5981    0.5600    0.0000 O.2     1  UNL1       -0.2920
      3 C           5.4641    0.0600    0.0000 C.3     1  UNL1        0.0153
      4 C           4.5981   -0.4400    0.0000 C.3     1  UNL1       -0.0403
      5 C           4.5981   -1.4400    0.0000 C.3     1  UNL1       -0.0339
      6 C           5.4641    1.0600    0.0000 C.2     1  UNL1        0.1405
      7 C           4.5981    1.5600    0.0000 C.3     1  UNL1        0.0345
      8 C           3.7320    1.0600    0.0000 C.2     1  UNL1        0.0011
      9 C           6.3301   -0.4400    0.0000 C.3     1  UNL1       -0.0557
     10 C           3.7320   -1.9400    0.0000 C.2     1  UNL1       -0.0846
     11 C           2.8660   -0.4400    0.0000 C.3     1  UNL1        0.0310
     12 C           2.8660   -1.4400    0.0000 C.2     1  UNL1       -0.0691
     13 C           3.7320    0.0600    0.0000 C.2     1  UNL1        0.1635
     14 C           2.8660    1.5600    0.0000 C.2     1  UNL1       -0.0688
     15 C           2.0000   -1.9400    0.0000 C.3     1  UNL1       -0.0434
     16 C           2.8660    2.5600    0.0000 C.3     1  UNL1       -0.0434
     17 C           2.0000    1.0600    0.0000 C.3     1  UNL1       -0.0434
     18 H           5.4641   -0.5600    0.0000 H       1  UNL1        0.0375
     19 H           4.3860    0.1426    0.0000 H       1  UNL1        0.0275
     20 H           3.9875   -0.5477    0.0000 H       1  UNL1        0.0275
     21 H           4.8101   -2.0226    0.0000 H       1  UNL1        0.0308
     22 H           5.2087   -1.3323    0.0000 H       1  UNL1        0.0308
     23 H           4.9966    2.0349    0.0000 H       1  UNL1        0.0391
     24 H           4.1996    2.0349    0.0000 H       1  UNL1        0.0391
     25 H           6.0201   -0.9769    0.0000 H       1  UNL1        0.0236
     26 H           6.8671   -0.7500    0.0000 H       1  UNL1        0.0236
     27 H           6.6401    0.0969    0.0000 H       1  UNL1        0.0236
     28 H           3.7320   -2.5600    0.0000 H       1  UNL1        0.0572
     29 H           2.6540    0.1426    0.0000 H       1  UNL1        0.0390
     30 H           2.2554   -0.5477    0.0000 H       1  UNL1        0.0390
     31 H           1.6900   -1.4031    0.0000 H       1  UNL1        0.0274
     32 H           1.4631   -2.2500    0.0000 H       1  UNL1        0.0274
     33 H           2.3100   -2.4769    0.0000 H       1  UNL1        0.0274
     34 H           1.6900    1.5969    0.0000 H       1  UNL1        0.0274
     35 H           1.4631    0.7500    0.0000 H       1  UNL1        0.0274
     36 H           2.3100    0.5231    0.0000 H       1  UNL1        0.0274
     37 H           3.4860    2.5600    0.0000 H       1  UNL1        0.0274
     38 H           2.8660    3.1800    0.0000 H       1  UNL1        0.0274
     39 H           2.2460    2.5600    0.0000 H       1  UNL1        0.0274
@<TRIPOS>BOND
     1     1     6    2
     2     2    13    2
     3     3     4    1
     4     3     6    1
     5     3     9    1
     6     3    18    1
     7     4     5    1
     8     4    19    1
     9     4    20    1
    10     5    10    1
    11     5    21    1
    12     5    22    1
    13     6     7    1
    14     7     8    1
    15     7    23    1
    16     7    24    1
    17     8    13    1
    18     8    14    2
    19     9    25    1
    20     9    26    1
    21     9    27    1
    22    10    12    2
    23    10    28    1
    24    11    12    1
    25    11    13    1
    26    11    29    1
    27    11    30    1
    28    12    15    1
    29    14    16    1
    30    14    17    1
    31    15    31    1
    32    15    32    1
    33    15    33    1
    34    16    37    1
    35    16    38    1
    36    16    39    1
    37    17    34    1
    38    17    35    1
    39    17    36    1
