@<TRIPOS>MOLECULE
IMPHY003554
 39 40 0 0 0
SMALL
GASTEIGER

@<TRIPOS>ATOM
      1 O           2.8660    0.2500    0.0000 O.3     1  UNL1       -0.4947
      2 O           4.5981   -2.7500    0.0000 O.3     1  UNL1       -0.4913
      3 O           6.3301    0.2500    0.0000 O.3     1  UNL1       -0.5065
      4 O           6.3301   -1.7500    0.0000 O.3     1  UNL1       -0.5033
      5 C           4.5981    1.2500    0.0000 C.3     1  UNL1        0.0340
      6 C           4.5981    0.2500    0.0000 C.ar    1  UNL1        0.0092
      7 C           5.4641    1.7500    0.0000 C.ar    1  UNL1        0.0053
      8 C           3.7320   -0.2500    0.0000 C.ar    1  UNL1        0.1278
      9 C           5.4641   -0.2500    0.0000 C.ar    1  UNL1       -0.0090
     10 C           3.7320    1.7500    0.0000 C.2     1  UNL1       -0.0792
     11 C           6.3301    1.2500    0.0000 C.ar    1  UNL1        0.1209
     12 C           5.4641    2.7500    0.0000 C.ar    1  UNL1       -0.0542
     13 C           3.7320   -1.2500    0.0000 C.ar    1  UNL1        0.0257
     14 C           5.4641   -1.2500    0.0000 C.ar    1  UNL1        0.1590
     15 C           4.5981   -1.7500    0.0000 C.ar    1  UNL1        0.1647
     16 C           7.1962    1.7500    0.0000 C.ar    1  UNL1       -0.0199
     17 C           6.3301    3.2500    0.0000 C.ar    1  UNL1       -0.0612
     18 C           7.1962    2.7500    0.0000 C.ar    1  UNL1       -0.0583
     19 C           3.7320    2.7500    0.0000 C.2     1  UNL1       -0.1017
     20 C           2.0000   -0.2500    0.0000 C.3     1  UNL1        0.0788
     21 C           3.7320   -3.2500    0.0000 C.3     1  UNL1        0.0790
     22 H           4.5981    1.8700    0.0000 H       1  UNL1        0.0442
     23 H           6.0010    0.0600    0.0000 H       1  UNL1        0.0659
     24 H           3.1951    1.4400    0.0000 H       1  UNL1        0.0576
     25 H           4.9272    3.0600    0.0000 H       1  UNL1        0.0622
     26 H           3.1951   -1.5600    0.0000 H       1  UNL1        0.0692
     27 H           7.7331    1.4400    0.0000 H       1  UNL1        0.0654
     28 H           6.3301    3.8700    0.0000 H       1  UNL1        0.0618
     29 H           7.7331    3.0600    0.0000 H       1  UNL1        0.0619
     30 H           4.2690    3.0600    0.0000 H       1  UNL1        0.0532
     31 H           3.1951    3.0600    0.0000 H       1  UNL1        0.0532
     32 H           6.8671   -0.0600    0.0000 H       1  UNL1        0.2921
     33 H           1.6900    0.2869    0.0000 H       1  UNL1        0.0660
     34 H           1.4631   -0.5600    0.0000 H       1  UNL1        0.0660
     35 H           2.3100   -0.7869    0.0000 H       1  UNL1        0.0660
     36 H           6.3301   -2.3700    0.0000 H       1  UNL1        0.2923
     37 H           3.4220   -2.7131    0.0000 H       1  UNL1        0.0660
     38 H           3.1951   -3.5600    0.0000 H       1  UNL1        0.0660
     39 H           4.0420   -3.7869    0.0000 H       1  UNL1        0.0660
@<TRIPOS>BOND
     1     1     8    1
     2     1    20    1
     3     2    15    1
     4     2    21    1
     5     3    11    1
     6     3    32    1
     7     4    14    1
     8     4    36    1
     9     5     6    1
    10     5     7    1
    11     5    10    1
    12     5    22    1
    13     6     8   ar
    14     6     9   ar
    15     7    11   ar
    16     7    12   ar
    17     8    13   ar
    18     9    14   ar
    19     9    23    1
    20    10    19    2
    21    10    24    1
    22    11    16   ar
    23    12    17   ar
    24    12    25    1
    25    13    15   ar
    26    13    26    1
    27    14    15   ar
    28    16    18   ar
    29    16    27    1
    30    17    18   ar
    31    17    28    1
    32    18    29    1
    33    19    30    1
    34    19    31    1
    35    20    33    1
    36    20    34    1
    37    20    35    1
    38    21    37    1
    39    21    38    1
    40    21    39    1
