@<TRIPOS>MOLECULE
IMPHY006634
 54 58 0 0 0
SMALL
GASTEIGER

@<TRIPOS>ATOM
      1 O          10.4786   -1.4311    0.0000 O.3     1  UNL1       -0.4796
      2 O          10.1214    1.8732    0.0000 O.3     1  UNL1       -0.3943
      3 O           8.6663   -2.6264    0.0000 O.3     1  UNL1       -0.5033
      4 O           6.0682   -0.1264    0.0000 O.2     1  UNL1       -0.4544
      5 O          14.0622   -2.3584    0.0000 O.3     1  UNL1       -0.4914
      6 O          15.0622   -0.6264    0.0000 O.3     1  UNL1       -0.5033
      7 O           6.0682    2.8736    0.0000 O.2     1  UNL1       -0.2869
      8 O           4.3198    2.9082    0.0000 O.3     1  UNL1       -0.5058
      9 O           2.5381   -0.1505    0.0000 O.3     1  UNL1       -0.5065
     10 C          10.4786    0.1784    0.0000 C.3     1  UNL1        0.0520
     11 C          11.0622   -0.6264    0.0000 C.3     1  UNL1        0.1344
     12 C           9.5323   -0.1264    0.0000 C.ar    1  UNL1        0.0077
     13 C           9.5323   -1.1264    0.0000 C.ar    1  UNL1        0.1662
     14 C          10.7892    1.1289    0.0000 C.3     1  UNL1        0.0548
     15 C          12.0622   -0.6264    0.0000 C.ar    1  UNL1       -0.0030
     16 C           8.6663    0.3736    0.0000 C.ar    1  UNL1       -0.0437
     17 C           8.6663   -1.6264    0.0000 C.ar    1  UNL1        0.1594
     18 C           7.8003   -0.1264    0.0000 C.ar    1  UNL1        0.0213
     19 C           7.8003   -1.1264    0.0000 C.ar    1  UNL1       -0.0058
     20 C          12.5622   -1.4924    0.0000 C.ar    1  UNL1       -0.0096
     21 C          12.5622    0.2397    0.0000 C.ar    1  UNL1       -0.0514
     22 C           6.9343    0.3736    0.0000 C.ar    1  UNL1        0.1394
     23 C          13.5622   -1.4924    0.0000 C.ar    1  UNL1        0.1616
     24 C          13.5622    0.2397    0.0000 C.ar    1  UNL1       -0.0161
     25 C          14.0622   -0.6264    0.0000 C.ar    1  UNL1        0.1585
     26 C           6.9343    1.3736    0.0000 C.ar    1  UNL1        0.0288
     27 C           5.2022    0.3736    0.0000 C.ar    1  UNL1        0.1462
     28 C           5.2022    1.3736    0.0000 C.ar    1  UNL1        0.1055
     29 C           6.0682    1.8736    0.0000 C.ar    1  UNL1        0.1966
     30 C           4.3083   -0.1610    0.0000 C.ar    1  UNL1        0.0231
     31 C           4.3083    1.9083    0.0000 C.ar    1  UNL1        0.1347
     32 C           3.4022    0.3528    0.0000 C.ar    1  UNL1        0.1239
     33 C           3.4022    1.3945    0.0000 C.ar    1  UNL1        0.0223
     34 C          13.5622   -3.2244    0.0000 C.3     1  UNL1        0.0790
     35 H          10.0411    0.6177    0.0000 H       1  UNL1        0.0412
     36 H          11.3439   -1.1787    0.0000 H       1  UNL1        0.0791
     37 H          11.3362    0.8369    0.0000 H       1  UNL1        0.0564
     38 H          11.1718    1.6168    0.0000 H       1  UNL1        0.0564
     39 H           8.6663    0.9936    0.0000 H       1  UNL1        0.0629
     40 H           7.2634   -1.4364    0.0000 H       1  UNL1        0.0662
     41 H          12.2522   -2.0293    0.0000 H       1  UNL1        0.0659
     42 H          12.2522    0.7766    0.0000 H       1  UNL1        0.0623
     43 H          10.3140    2.4625    0.0000 H       1  UNL1        0.2094
     44 H          13.8722    0.7766    0.0000 H       1  UNL1        0.0655
     45 H           8.1294   -2.9364    0.0000 H       1  UNL1        0.2923
     46 H           7.4712    1.6836    0.0000 H       1  UNL1        0.0693
     47 H           4.3154   -0.7810    0.0000 H       1  UNL1        0.0691
     48 H          15.3722   -0.0894    0.0000 H       1  UNL1        0.2923
     49 H           2.8665    1.7065    0.0000 H       1  UNL1        0.0691
     50 H          13.0252   -2.9144    0.0000 H       1  UNL1        0.0660
     51 H          13.2522   -3.7614    0.0000 H       1  UNL1        0.0660
     52 H          14.0991   -3.5344    0.0000 H       1  UNL1        0.0660
     53 H           3.7865    3.2244    0.0000 H       1  UNL1        0.2922
     54 H           2.0000    0.1574    0.0000 H       1  UNL1        0.2921
@<TRIPOS>BOND
     1     1    11    1
     2     1    13    1
     3     2    14    1
     4     2    43    1
     5     3    17    1
     6     3    45    1
     7     4    22   ar
     8     4    27   ar
     9     5    23    1
    10     5    34    1
    11     6    25    1
    12     6    48    1
    13     7    29    2
    14     8    31    1
    15     8    53    1
    16     9    32    1
    17     9    54    1
    18    10    11    1
    19    10    12    1
    20    10    14    1
    21    10    35    1
    22    11    15    1
    23    11    36    1
    24    12    13   ar
    25    12    16   ar
    26    13    17   ar
    27    14    37    1
    28    14    38    1
    29    15    20   ar
    30    15    21   ar
    31    16    18   ar
    32    16    39    1
    33    17    19   ar
    34    18    19   ar
    35    18    22    1
    36    19    40    1
    37    20    23   ar
    38    20    41    1
    39    21    24   ar
    40    21    42    1
    41    22    26   ar
    42    23    25   ar
    43    24    25   ar
    44    24    44    1
    45    26    29   ar
    46    26    46    1
    47    27    28   ar
    48    27    30   ar
    49    28    29   ar
    50    28    31   ar
    51    30    32   ar
    52    30    47    1
    53    31    33   ar
    54    32    33   ar
    55    33    49    1
    56    34    50    1
    57    34    51    1
    58    34    52    1
