@<TRIPOS>MOLECULE
IMPHY003864
 41 44 0 0 0
SMALL
GASTEIGER

@<TRIPOS>ATOM
      1 O           4.5596    0.8780    0.0000 O.3     1  UNL1       -0.3356
      2 O           5.7899    1.1100    0.0000 O.3     1  UNL1       -0.3074
      3 O           6.4870   -0.3207    0.0000 O.3     1  UNL1       -0.4317
      4 O           7.4004   -1.8275    0.0000 O.2     1  UNL1       -0.2505
      5 C           4.6664   -0.2988    0.0000 C.3     1  UNL1        0.1412
      6 C           3.7655    0.1351    0.0000 C.3     1  UNL1       -0.0028
      7 C           4.7603   -1.3362    0.0000 C.3     1  UNL1        0.0071
      8 C           2.8959   -0.4383    0.0000 C.3     1  UNL1       -0.0382
      9 C           5.5674    0.1351    0.0000 C.3     1  UNL1        0.2368
     10 C           5.1664    1.8919    0.0000 C.3     1  UNL1        0.1723
     11 C           3.5430    1.1100    0.0000 C.3     1  UNL1       -0.0423
     12 C           3.9042   -1.9296    0.0000 C.3     1  UNL1       -0.0464
     13 C           2.9657   -1.4776    0.0000 C.3     1  UNL1       -0.0498
     14 C           5.6389   -1.8668    0.0000 C.3     1  UNL1        0.0593
     15 C           4.1664    1.8919    0.0000 C.3     1  UNL1        0.0017
     16 C           2.0000    0.0059    0.0000 C.3     1  UNL1       -0.0621
     17 C           6.5237   -1.3465    0.0000 C.2     1  UNL1        0.3126
     18 C           5.3890    2.8668    0.0000 C.3     1  UNL1       -0.0104
     19 C           5.6330   -2.8668    0.0000 C.3     1  UNL1       -0.0519
     20 H           2.9996    0.5039    0.0000 H       1  UNL1        0.0333
     21 H           4.7870   -2.1858    0.0000 H       1  UNL1        0.0339
     22 H           2.3803   -0.7826    0.0000 H       1  UNL1        0.0302
     23 H           5.8780   -0.6561    0.0000 H       1  UNL1        0.1088
     24 H           3.1564    1.5948    0.0000 H       1  UNL1        0.0271
     25 H           2.9844    0.8410    0.0000 H       1  UNL1        0.0271
     26 H           3.5436   -2.4339    0.0000 H       1  UNL1        0.0269
     27 H           4.3394   -2.3712    0.0000 H       1  UNL1        0.0269
     28 H           2.3491   -1.4127    0.0000 H       1  UNL1        0.0268
     29 H           2.7963   -2.0740    0.0000 H       1  UNL1        0.0268
     30 H           6.1762   -2.1762    0.0000 H       1  UNL1        0.0414
     31 H           4.3044    2.4963    0.0000 H       1  UNL1        0.0317
     32 H           3.6078    2.1609    0.0000 H       1  UNL1        0.0317
     33 H           2.2755    0.5614    0.0000 H       1  UNL1        0.0233
     34 H           1.4446    0.2814    0.0000 H       1  UNL1        0.0233
     35 H           1.7246   -0.5495    0.0000 H       1  UNL1        0.0233
     36 H           5.9934    2.7288    0.0000 H       1  UNL1        0.0281
     37 H           5.5269    3.4712    0.0000 H       1  UNL1        0.0281
     38 H           4.7845    3.0048    0.0000 H       1  UNL1        0.0281
     39 H           5.0130   -2.8632    0.0000 H       1  UNL1        0.0238
     40 H           5.6294   -3.4868    0.0000 H       1  UNL1        0.0238
     41 H           6.2530   -2.8704    0.0000 H       1  UNL1        0.0238
@<TRIPOS>BOND
     1     1     5    1
     2     1    10    1
     3     2     9    1
     4     2    10    1
     5     3     9    1
     6     3    17    1
     7     4    17    2
     8     5     6    1
     9     5     7    1
    10     5     9    1
    11     6     8    1
    12     6    11    1
    13     6    20    1
    14     7    12    1
    15     7    14    1
    16     7    21    1
    17     8    13    1
    18     8    16    1
    19     8    22    1
    20     9    23    1
    21    10    15    1
    22    10    18    1
    23    11    15    1
    24    11    24    1
    25    11    25    1
    26    12    13    1
    27    12    26    1
    28    12    27    1
    29    13    28    1
    30    13    29    1
    31    14    17    1
    32    14    19    1
    33    14    30    1
    34    15    31    1
    35    15    32    1
    36    16    33    1
    37    16    34    1
    38    16    35    1
    39    18    36    1
    40    18    37    1
    41    18    38    1
    42    19    39    1
    43    19    40    1
    44    19    41    1
