@<TRIPOS>MOLECULE
IMPHY003588
 83 87 0 0 0
SMALL
GASTEIGER

@<TRIPOS>ATOM
      1 O           5.7726   -3.1206    0.0000 O.3     1  UNL1       -0.3911
      2 O          11.1246    3.0930    0.0000 O.3     1  UNL1       -0.3912
      3 O           3.9891   -3.0931    0.0000 O.3     1  UNL1       -0.3944
      4 C           7.5167   -0.0513    0.0000 C.3     1  UNL1       -0.0193
      5 C           7.5167    0.9487    0.0000 C.3     1  UNL1       -0.0257
      6 C           8.4106    1.4833    0.0000 C.3     1  UNL1       -0.0250
      7 C           6.6507   -0.5513    0.0000 C.3     1  UNL1       -0.0028
      8 C           9.3167    0.9695    0.0000 C.3     1  UNL1       -0.0278
      9 C           8.4106   -0.5860    0.0000 C.3     1  UNL1       -0.0463
     10 C           5.7847   -0.0513    0.0000 C.2     1  UNL1       -0.0632
     11 C           4.8746   -0.5582    0.0000 C.3     1  UNL1       -0.0088
     12 C           4.8666   -1.5998    0.0000 C.3     1  UNL1        0.0263
     13 C           9.3167   -0.0722    0.0000 C.3     1  UNL1       -0.0486
     14 C          10.2605    1.5047    0.0000 C.3     1  UNL1       -0.0056
     15 C           6.6667   -1.5928    0.0000 C.3     1  UNL1       -0.0166
     16 C           6.6507    1.4487    0.0000 C.3     1  UNL1       -0.0306
     17 C           8.3856    2.5680    0.0000 C.3     1  UNL1       -0.0447
     18 C           5.7687   -2.1206    0.0000 C.3     1  UNL1        0.0643
     19 C           7.8588   -0.9910    0.0000 C.3     1  UNL1       -0.0585
     20 C           5.7847    0.9487    0.0000 C.2     1  UNL1       -0.0836
     21 C          10.2605    2.5897    0.0000 C.3     1  UNL1        0.0606
     22 C           7.5408    1.9766    0.0000 C.3     1  UNL1       -0.0590
     23 C           7.2935   -1.3174    0.0000 C.3     1  UNL1       -0.0552
     24 C           3.9478    0.0059    0.0000 C.3     1  UNL1       -0.0406
     25 C           9.3167    3.1250    0.0000 C.3     1  UNL1       -0.0258
     26 C           3.9312   -2.1495    0.0000 C.3     1  UNL1       -0.0419
     27 C           2.9999   -0.5220    0.0000 C.3     1  UNL1       -0.0343
     28 C           2.9916   -1.6070    0.0000 C.3     1  UNL1       -0.0472
     29 C           4.8589   -2.5997    0.0000 C.3     1  UNL1        0.0527
     30 C          11.2605    1.5009    0.0000 C.3     1  UNL1       -0.0572
     31 C          10.7572    0.6368    0.0000 C.3     1  UNL1       -0.0572
     32 C           2.0000   -0.5105    0.0000 C.3     1  UNL1       -0.0598
     33 C           2.5100    0.3497    0.0000 C.3     1  UNL1       -0.0598
     34 H           8.0560    0.6428    0.0000 H       1  UNL1        0.0315
     35 H           9.8524    0.6574    0.0000 H       1  UNL1        0.0312
     36 H           8.0060   -1.0558    0.0000 H       1  UNL1        0.0271
     37 H           8.8043   -1.0650    0.0000 H       1  UNL1        0.0271
     38 H           4.8910    0.2917    0.0000 H       1  UNL1        0.0353
     39 H           9.5258   -0.6558    0.0000 H       1  UNL1        0.0268
     40 H           9.9276    0.0339    0.0000 H       1  UNL1        0.0268
     41 H           6.8848   -2.1732    0.0000 H       1  UNL1        0.0299
     42 H           7.2759   -1.4773    0.0000 H       1  UNL1        0.0299
     43 H           7.0492    1.9236    0.0000 H       1  UNL1        0.0310
     44 H           6.2522    1.9236    0.0000 H       1  UNL1        0.0310
     45 H           8.1631    3.1467    0.0000 H       1  UNL1        0.0271
     46 H           7.7773    2.4478    0.0000 H       1  UNL1        0.0271
     47 H           6.3074   -2.4275    0.0000 H       1  UNL1        0.0600
     48 H           7.2762   -1.2031    0.0000 H       1  UNL1        0.0235
     49 H           8.0709   -1.5736    0.0000 H       1  UNL1        0.0235
     50 H           8.4414   -0.7789    0.0000 H       1  UNL1        0.0235
     51 H           5.2477    1.2587    0.0000 H       1  UNL1        0.0572
     52 H          10.2569    3.2097    0.0000 H       1  UNL1        0.0599
     53 H           7.8466    2.5159    0.0000 H       1  UNL1        0.0235
     54 H           7.0015    2.2825    0.0000 H       1  UNL1        0.0235
     55 H           7.2349    1.4373    0.0000 H       1  UNL1        0.0235
     56 H           6.8185   -1.7159    0.0000 H       1  UNL1        0.0238
     57 H           7.6920   -1.7923    0.0000 H       1  UNL1        0.0238
     58 H           7.7684   -0.9189    0.0000 H       1  UNL1        0.0238
     59 H           4.3560    0.4726    0.0000 H       1  UNL1        0.0276
     60 H           3.5579    0.4879    0.0000 H       1  UNL1        0.0276
     61 H           9.7103    3.6040    0.0000 H       1  UNL1        0.0290
     62 H           8.9121    3.5947    0.0000 H       1  UNL1        0.0290
     63 H           3.5339   -2.6255    0.0000 H       1  UNL1        0.0272
     64 H           4.3322   -2.6224    0.0000 H       1  UNL1        0.0272
     65 H           2.3816   -1.4962    0.0000 H       1  UNL1        0.0271
     66 H           2.7780   -2.1891    0.0000 H       1  UNL1        0.0271
     67 H           5.0665   -3.1840    0.0000 H       1  UNL1        0.0564
     68 H           5.4703   -2.4968    0.0000 H       1  UNL1        0.0564
     69 H          10.2190    0.3288    0.0000 H       1  UNL1        0.0236
     70 H          11.0651    0.0986    0.0000 H       1  UNL1        0.0236
     71 H          11.2953    0.9447    0.0000 H       1  UNL1        0.0236
     72 H          11.2581    0.8809    0.0000 H       1  UNL1        0.0236
     73 H          11.8805    1.4985    0.0000 H       1  UNL1        0.0236
     74 H          11.2629    2.1209    0.0000 H       1  UNL1        0.0236
     75 H           6.3107   -3.4285    0.0000 H       1  UNL1        0.2098
     76 H           2.0072    0.1095    0.0000 H       1  UNL1        0.0235
     77 H           3.0505    0.6535    0.0000 H       1  UNL1        0.0235
     78 H           2.2062    0.8902    0.0000 H       1  UNL1        0.0235
     79 H           1.9695    0.0459    0.0000 H       1  UNL1        0.0235
     80 H           1.3800   -0.5033    0.0000 H       1  UNL1        0.0235
     81 H           1.9928   -1.1304    0.0000 H       1  UNL1        0.0235
     82 H          11.1222    3.7130    0.0000 H       1  UNL1        0.2098
     83 H           3.9843   -3.7130    0.0000 H       1  UNL1        0.2094
@<TRIPOS>BOND
     1    18     1    1
     2     1    75    1
     3    21     2    1
     4     2    82    1
     5     3    29    1
     6     3    83    1
     7     4     5    1
     8     4     7    1
     9     4     9    1
    10     4    19    1
    11     5     6    1
    12     5    16    1
    13     5    34    1
    14     6     8    1
    15     6    17    1
    16     6    22    1
    17     7    10    1
    18     7    15    1
    19     7    23    1
    20     8    13    1
    21     8    14    1
    22     8    35    1
    23     9    13    1
    24     9    36    1
    25     9    37    1
    26    10    11    1
    27    10    20    2
    28    11    12    1
    29    11    24    1
    30    11    38    1
    31    12    18    1
    32    12    26    1
    33    12    29    1
    34    13    39    1
    35    13    40    1
    36    14    21    1
    37    14    30    1
    38    14    31    1
    39    15    18    1
    40    15    41    1
    41    15    42    1
    42    16    20    1
    43    16    43    1
    44    16    44    1
    45    17    25    1
    46    17    45    1
    47    17    46    1
    48    18    47    1
    49    19    48    1
    50    19    49    1
    51    19    50    1
    52    20    51    1
    53    21    25    1
    54    21    52    1
    55    22    53    1
    56    22    54    1
    57    22    55    1
    58    23    56    1
    59    23    57    1
    60    23    58    1
    61    24    27    1
    62    24    59    1
    63    24    60    1
    64    25    61    1
    65    25    62    1
    66    26    28    1
    67    26    63    1
    68    26    64    1
    69    27    28    1
    70    27    32    1
    71    27    33    1
    72    28    65    1
    73    28    66    1
    74    29    67    1
    75    29    68    1
    76    30    72    1
    77    30    73    1
    78    30    74    1
    79    31    69    1
    80    31    70    1
    81    31    71    1
    82    32    76    1
    83    32    80    1
    84    32    81    1
    85    33    77    1
    86    33    78    1
    87    33    79    1
