@<TRIPOS>MOLECULE
IMPHY017759
 12 11 0 0 0
SMALL
GASTEIGER

@<TRIPOS>ATOM
      1 N           2.0000    0.5000    0.0000 N.1     1  UNL1       -0.1966
      2 C           4.5981    0.0000    0.0000 C.3     1  UNL1       -0.0431
      3 C           3.7320   -0.5000    0.0000 C.3     1  UNL1        0.0345
      4 C           5.4641   -0.5000    0.0000 C.3     1  UNL1       -0.0644
      5 C           2.8660    0.0000    0.0000 C.1     1  UNL1        0.0625
      6 H           4.9966    0.4749    0.0000 H       1  UNL1        0.0272
      7 H           4.1996    0.4749    0.0000 H       1  UNL1        0.0272
      8 H           3.3335   -0.9749    0.0000 H       1  UNL1        0.0418
      9 H           4.1306   -0.9749    0.0000 H       1  UNL1        0.0418
     10 H           5.1541   -1.0369    0.0000 H       1  UNL1        0.0230
     11 H           6.0010   -0.8100    0.0000 H       1  UNL1        0.0230
     12 H           5.7741    0.0369    0.0000 H       1  UNL1        0.0230
@<TRIPOS>BOND
     1     1     5    3
     2     2     3    1
     3     2     4    1
     4     2     6    1
     5     2     7    1
     6     3     5    1
     7     3     8    1
     8     3     9    1
     9     4    10    1
    10     4    11    1
    11     4    12    1
