@<TRIPOS>MOLECULE
IMPHY015046
 85 91 0 0 0
SMALL
GASTEIGER

@<TRIPOS>ATOM
      1 O           7.2066    1.1579    0.0000 O.3     1  UNL1       -0.4482
      2 O           7.7556    3.6124    0.0000 O.3     1  UNL1       -0.4885
      3 O           6.6743    3.6035    0.0000 O.3     1  UNL1       -0.4914
      4 O           8.9657    4.1739    0.0000 O.3     1  UNL1       -0.4913
      5 O           5.9340   -3.0475    0.0000 O.3     1  UNL1       -0.4524
      6 O           7.5064   -4.2892    0.0000 O.3     1  UNL1       -0.5033
      7 N           9.8338   -0.3345    0.0000 N.3     1  UNL1       -0.2977
      8 N           2.8660    1.6592    0.0000 N.3     1  UNL1       -0.2978
      9 C           8.9657    0.1667    0.0000 C.3     1  UNL1        0.0432
     10 C           3.7341    1.1579    0.0000 C.3     1  UNL1        0.0397
     11 C           8.9657    1.1691    0.0000 C.ar    1  UNL1        0.0193
     12 C          10.7020    0.1667    0.0000 C.3     1  UNL1        0.0032
     13 C           9.8338    1.6703    0.0000 C.ar    1  UNL1       -0.0343
     14 C           4.6022    1.6592    0.0000 C.ar    1  UNL1       -0.0231
     15 C          10.7020    1.1691    0.0000 C.3     1  UNL1       -0.0143
     16 C           8.0976   -0.3345    0.0000 C.3     1  UNL1       -0.0076
     17 C           2.8660    2.6616    0.0000 C.3     1  UNL1        0.0032
     18 C           4.6022    2.6616    0.0000 C.ar    1  UNL1       -0.0378
     19 C           3.7341    3.1628    0.0000 C.3     1  UNL1       -0.0144
     20 C           3.7341    0.1555    0.0000 C.3     1  UNL1       -0.0079
     21 C           8.0976    1.6703    0.0000 C.ar    1  UNL1        0.1786
     22 C           5.4704    1.1579    0.0000 C.ar    1  UNL1       -0.0107
     23 C           9.8338   -1.3345    0.0000 C.3     1  UNL1       -0.0122
     24 C           9.8338    2.6727    0.0000 C.ar    1  UNL1       -0.0125
     25 C           6.3385    1.6592    0.0000 C.ar    1  UNL1        0.1703
     26 C           7.9431   -1.3162    0.0000 C.ar    1  UNL1       -0.0419
     27 C           5.4704    3.1628    0.0000 C.ar    1  UNL1       -0.0128
     28 C           8.0976    2.6727    0.0000 C.ar    1  UNL1        0.2045
     29 C           2.0000    1.1591    0.0000 C.3     1  UNL1       -0.0122
     30 C           4.2424   -0.6253    0.0000 C.ar    1  UNL1       -0.0453
     31 C           6.3385    2.6616    0.0000 C.ar    1  UNL1        0.1624
     32 C           8.9657    3.1739    0.0000 C.ar    1  UNL1        0.1655
     33 C           7.0114   -1.6860    0.0000 C.ar    1  UNL1       -0.0124
     34 C           8.7292   -1.9383    0.0000 C.ar    1  UNL1       -0.0548
     35 C           5.2438   -0.5814    0.0000 C.ar    1  UNL1       -0.0550
     36 C           3.7797   -1.5144    0.0000 C.ar    1  UNL1       -0.0550
     37 C           6.8657   -2.6778    0.0000 C.ar    1  UNL1        0.1698
     38 C           8.5835   -2.9300    0.0000 C.ar    1  UNL1       -0.0162
     39 C           5.3198   -2.3160    0.0000 C.ar    1  UNL1        0.1286
     40 C           5.7826   -1.4268    0.0000 C.ar    1  UNL1       -0.0191
     41 C           4.3184   -2.3598    0.0000 C.ar    1  UNL1       -0.0191
     42 C           7.6518   -3.2998    0.0000 C.ar    1  UNL1        0.1591
     43 C           8.3984    4.3784    0.0000 C.3     1  UNL1        0.0791
     44 C           6.0264    4.3653    0.0000 C.3     1  UNL1        0.0790
     45 C           9.8318    4.6739    0.0000 C.3     1  UNL1        0.0790
     46 H           8.9657   -0.6833    0.0000 H       1  UNL1        0.0516
     47 H           2.9980    0.7329    0.0000 H       1  UNL1        0.0515
     48 H          10.9140   -0.4159    0.0000 H       1  UNL1        0.0430
     49 H          11.3125    0.2743    0.0000 H       1  UNL1        0.0430
     50 H          11.3125    1.0614    0.0000 H       1  UNL1        0.0326
     51 H          10.9140    1.7517    0.0000 H       1  UNL1        0.0326
     52 H           7.9162    0.2583    0.0000 H       1  UNL1        0.0332
     53 H           7.4792   -0.3782    0.0000 H       1  UNL1        0.0332
     54 H           2.6540    3.2442    0.0000 H       1  UNL1        0.0430
     55 H           2.2554    2.5539    0.0000 H       1  UNL1        0.0430
     56 H           4.1327    3.6377    0.0000 H       1  UNL1        0.0326
     57 H           3.3356    3.6377    0.0000 H       1  UNL1        0.0326
     58 H           3.1478    0.3572    0.0000 H       1  UNL1        0.0332
     59 H           4.3285    0.3319    0.0000 H       1  UNL1        0.0332
     60 H           5.4704    0.5379    0.0000 H       1  UNL1        0.0659
     61 H           9.2139   -1.3345    0.0000 H       1  UNL1        0.0391
     62 H           9.8338   -1.9545    0.0000 H       1  UNL1        0.0391
     63 H          10.4538   -1.3345    0.0000 H       1  UNL1        0.0391
     64 H          10.3708    2.9827    0.0000 H       1  UNL1        0.0658
     65 H           5.4704    3.7828    0.0000 H       1  UNL1        0.0658
     66 H           1.6900    1.6961    0.0000 H       1  UNL1        0.0391
     67 H           1.4631    0.8492    0.0000 H       1  UNL1        0.0391
     68 H           2.3100    0.6222    0.0000 H       1  UNL1        0.0391
     69 H           6.5252   -1.3012    0.0000 H       1  UNL1        0.0658
     70 H           9.3054   -1.7096    0.0000 H       1  UNL1        0.0621
     71 H           5.5301   -0.0314    0.0000 H       1  UNL1        0.0621
     72 H           3.1602   -1.5416    0.0000 H       1  UNL1        0.0621
     73 H           9.0697   -3.3148    0.0000 H       1  UNL1        0.0655
     74 H           6.4020   -1.3996    0.0000 H       1  UNL1        0.0654
     75 H           4.0321   -2.9098    0.0000 H       1  UNL1        0.0654
     76 H           8.8734    3.9799    0.0000 H       1  UNL1        0.0660
     77 H           8.7969    4.8534    0.0000 H       1  UNL1        0.0660
     78 H           7.9234    4.7770    0.0000 H       1  UNL1        0.0660
     79 H           6.4987    4.7669    0.0000 H       1  UNL1        0.0660
     80 H           5.6247    4.8376    0.0000 H       1  UNL1        0.0660
     81 H           5.5541    3.9636    0.0000 H       1  UNL1        0.0660
     82 H          10.1418    4.1370    0.0000 H       1  UNL1        0.0660
     83 H          10.3687    4.9839    0.0000 H       1  UNL1        0.0660
     84 H           9.5218    5.2108    0.0000 H       1  UNL1        0.0660
     85 H           7.9926   -4.6739    0.0000 H       1  UNL1        0.2923
@<TRIPOS>BOND
     1     1    21    1
     2     1    25    1
     3     2    28    1
     4     2    43    1
     5     3    31    1
     6     3    44    1
     7     4    32    1
     8     4    45    1
     9     5    37    1
    10     5    39    1
    11     6    42    1
    12     6    85    1
    13     7     9    1
    14     7    12    1
    15     7    23    1
    16     8    10    1
    17     8    17    1
    18     8    29    1
    19     9    11    1
    20     9    16    1
    21     9    46    1
    22    10    14    1
    23    10    20    1
    24    10    47    1
    25    11    13   ar
    26    11    21   ar
    27    12    15    1
    28    12    48    1
    29    12    49    1
    30    13    15    1
    31    13    24   ar
    32    14    18   ar
    33    14    22   ar
    34    15    50    1
    35    15    51    1
    36    16    26    1
    37    16    52    1
    38    16    53    1
    39    17    19    1
    40    17    54    1
    41    17    55    1
    42    18    19    1
    43    18    27   ar
    44    19    56    1
    45    19    57    1
    46    20    30    1
    47    20    58    1
    48    20    59    1
    49    21    28   ar
    50    22    25   ar
    51    22    60    1
    52    23    61    1
    53    23    62    1
    54    23    63    1
    55    24    32   ar
    56    24    64    1
    57    25    31   ar
    58    26    33   ar
    59    26    34   ar
    60    27    31   ar
    61    27    65    1
    62    28    32   ar
    63    29    66    1
    64    29    67    1
    65    29    68    1
    66    30    35   ar
    67    30    36   ar
    68    33    37   ar
    69    33    69    1
    70    34    38   ar
    71    34    70    1
    72    35    40   ar
    73    35    71    1
    74    36    41   ar
    75    36    72    1
    76    37    42   ar
    77    38    42   ar
    78    38    73    1
    79    39    40   ar
    80    39    41   ar
    81    40    74    1
    82    41    75    1
    83    43    76    1
    84    43    77    1
    85    43    78    1
    86    44    79    1
    87    44    80    1
    88    44    81    1
    89    45    82    1
    90    45    83    1
    91    45    84    1
