@<TRIPOS>MOLECULE
IMPHY000470
 37 38 0 0 0
SMALL
GASTEIGER

@<TRIPOS>ATOM
      1 O           4.8073   -1.7514    0.0000 O.3     1  UNL1       -0.4570
      2 O           6.3301    1.2204    0.0000 O.3     1  UNL1       -0.3870
      3 O           6.2960   -2.7204    0.0000 O.2     1  UNL1       -0.2453
      4 O           2.0000    0.7204    0.0000 O.2     1  UNL1       -0.2924
      5 C           5.4641   -0.2796    0.0000 C.3     1  UNL1        0.0572
      6 C           4.5981   -0.7796    0.0000 C.3     1  UNL1        0.1170
      7 C           5.4641    0.7204    0.0000 C.3     1  UNL1        0.0840
      8 C           3.7320   -0.2796    0.0000 C.3     1  UNL1        0.0130
      9 C           6.2011   -0.9466    0.0000 C.2     1  UNL1        0.0389
     10 C           4.5981    1.2204    0.0000 C.2     1  UNL1       -0.0562
     11 C           5.7960   -1.8544    0.0000 C.2     1  UNL1        0.3354
     12 C           3.7320    0.7204    0.0000 C.2     1  UNL1       -0.0085
     13 C           4.5981    2.2204    0.0000 C.2     1  UNL1       -0.0737
     14 C           3.7320    2.7204    0.0000 C.3     1  UNL1       -0.0249
     15 C           2.8660    2.2204    0.0000 C.3     1  UNL1        0.0138
     16 C           2.8660    1.2204    0.0000 C.2     1  UNL1        0.1591
     17 C           7.1796   -0.7404    0.0000 C.2     1  UNL1       -0.0882
     18 C           5.4641    2.7204    0.0000 C.3     1  UNL1       -0.0437
     19 C           3.7320    1.7204    0.0000 C.2     1  UNL1       -0.0921
     20 H           6.2411    0.0652    0.0000 H       1  UNL1        0.0415
     21 H           3.9111   -1.2801    0.0000 H       1  UNL1        0.0744
     22 H           5.4641    1.3404    0.0000 H       1  UNL1        0.0645
     23 H           3.1215   -0.1719    0.0000 H       1  UNL1        0.0350
     24 H           3.5200   -0.8622    0.0000 H       1  UNL1        0.0350
     25 H           4.3860    0.6378    0.0000 H       1  UNL1        0.0597
     26 H           4.1306    3.1954    0.0000 H       1  UNL1        0.0314
     27 H           3.3335    3.1954    0.0000 H       1  UNL1        0.0314
     28 H           2.6540    2.8031    0.0000 H       1  UNL1        0.0348
     29 H           2.2554    2.1128    0.0000 H       1  UNL1        0.0348
     30 H           7.5937   -1.2019    0.0000 H       1  UNL1        0.0540
     31 H           7.3722   -0.1511    0.0000 H       1  UNL1        0.0540
     32 H           6.8671    0.9104    0.0000 H       1  UNL1        0.2102
     33 H           5.7741    2.1835    0.0000 H       1  UNL1        0.0274
     34 H           6.0010    3.0304    0.0000 H       1  UNL1        0.0274
     35 H           5.1541    3.2574    0.0000 H       1  UNL1        0.0274
     36 H           4.2690    2.0304    0.0000 H       1  UNL1        0.0539
     37 H           3.1951    2.0304    0.0000 H       1  UNL1        0.0539
@<TRIPOS>BOND
     1     1     6    1
     2     1    11    1
     3     7     2    1
     4     2    32    1
     5     3    11    2
     6     4    16    2
     7     5     6    1
     8     5     7    1
     9     5     9    1
    10     5    20    1
    11     6     8    1
    12     6    21    1
    13     7    10    1
    14     7    22    1
    15     8    12    1
    16     8    23    1
    17     8    24    1
    18     9    11    1
    19     9    17    2
    20    10    13    2
    21    10    25    1
    22    12    16    1
    23    12    19    2
    24    13    14    1
    25    13    18    1
    26    14    15    1
    27    14    26    1
    28    14    27    1
    29    15    16    1
    30    15    28    1
    31    15    29    1
    32    17    30    1
    33    17    31    1
    34    18    33    1
    35    18    34    1
    36    18    35    1
    37    19    36    1
    38    19    37    1
