@<TRIPOS>MOLECULE
IMPHY006702
 117 123 0 0 0
SMALL
GASTEIGER

@<TRIPOS>ATOM
      1 O           8.5480   -1.7256    0.0000 O.3     1  UNL1       -0.3908
      2 O           9.5315    4.7347    0.0000 O.3     1  UNL1       -0.4574
      3 O          10.3312   -4.8699    0.0000 O.3     1  UNL1       -0.3450
      4 O           8.5991   -4.8699    0.0000 O.3     1  UNL1       -0.3405
      5 O           9.1678    6.4282    0.0000 O.2     1  UNL1       -0.2452
      6 O          10.3312   -6.8699    0.0000 O.3     1  UNL1       -0.3841
      7 O          10.4525    7.5899    0.0000 O.3     1  UNL1       -0.3902
      8 O           8.5991   -7.8699    0.0000 O.3     1  UNL1       -0.3864
      9 O           6.8671   -6.8699    0.0000 O.3     1  UNL1       -0.3865
     10 O           6.0010   -5.3699    0.0000 O.3     1  UNL1       -0.3460
     11 O           5.1350   -3.8699    0.0000 O.3     1  UNL1       -0.3405
     12 O           4.2690   -6.3699    0.0000 O.3     1  UNL1       -0.3841
     13 O           2.5369   -5.3699    0.0000 O.3     1  UNL1       -0.3864
     14 O           2.5369   -3.3699    0.0000 O.3     1  UNL1       -0.3865
     15 O           3.4030   -1.8699    0.0000 O.3     1  UNL1       -0.3924
     16 C          10.3604    1.3270    0.0000 C.3     1  UNL1       -0.0258
     17 C          11.2284    0.8303    0.0000 C.3     1  UNL1       -0.0320
     18 C          11.2322   -0.1697    0.0000 C.3     1  UNL1       -0.0306
     19 C          10.3681   -0.6730    0.0000 C.3     1  UNL1       -0.0262
     20 C          10.5659    2.2996    0.0000 C.3     1  UNL1       -0.0294
     21 C           9.4963    0.8236    0.0000 C.3     1  UNL1       -0.0468
     22 C          10.3561   -1.7146    0.0000 C.3     1  UNL1        0.0181
     23 C          11.9628    1.5002    0.0000 C.3     1  UNL1       -0.0492
     24 C           9.5002   -0.1764    0.0000 C.3     1  UNL1       -0.0486
     25 C          11.5542    2.4064    0.0000 C.3     1  UNL1       -0.0491
     26 C          12.1442   -0.6730    0.0000 C.3     1  UNL1       -0.0311
     27 C           9.8952    3.0413    0.0000 C.3     1  UNL1       -0.0030
     28 C           9.4925    1.8236    0.0000 C.3     1  UNL1       -0.0590
     29 C          11.2562   -2.2389    0.0000 C.2     1  UNL1       -0.0624
     30 C           9.4062   -2.2389    0.0000 C.3     1  UNL1        0.0669
     31 C          12.1562   -1.7146    0.0000 C.2     1  UNL1       -0.0838
     32 C           9.4920   -1.2113    0.0000 C.3     1  UNL1       -0.0532
     33 C          11.2687   -3.3238    0.0000 C.3     1  UNL1       -0.0046
     34 C           9.3936   -3.3238    0.0000 C.3     1  UNL1        0.0007
     35 C          10.2022    3.9930    0.0000 C.3     1  UNL1        0.1099
     36 C          10.3312   -3.8699    0.0000 C.3     1  UNL1        0.0678
     37 C           8.9175    2.8313    0.0000 C.3     1  UNL1       -0.0588
     38 C          11.1799    4.2030    0.0000 C.3     1  UNL1        0.0064
     39 C          11.4869    5.1547    0.0000 C.2     1  UNL1       -0.0570
     40 C           9.4651   -5.3699    0.0000 C.3     1  UNL1        0.1882
     41 C           9.8385    5.6864    0.0000 C.2     1  UNL1        0.3376
     42 C          10.8162    5.8964    0.0000 C.2     1  UNL1        0.0608
     43 C           9.4651   -6.3699    0.0000 C.3     1  UNL1        0.1341
     44 C          12.4646    5.3647    0.0000 C.3     1  UNL1       -0.0428
     45 C          11.1232    6.8481    0.0000 C.3     1  UNL1        0.0759
     46 C           8.5991   -6.8699    0.0000 C.3     1  UNL1        0.1141
     47 C           7.7331   -5.3699    0.0000 C.3     1  UNL1        0.1134
     48 C           7.7331   -6.3699    0.0000 C.3     1  UNL1        0.1119
     49 C           6.8671   -4.8699    0.0000 C.3     1  UNL1        0.0796
     50 C           5.1350   -4.8699    0.0000 C.3     1  UNL1        0.1880
     51 C           4.2690   -5.3699    0.0000 C.3     1  UNL1        0.1341
     52 C           3.4030   -4.8699    0.0000 C.3     1  UNL1        0.1141
     53 C           4.2690   -3.3699    0.0000 C.3     1  UNL1        0.1130
     54 C           3.4030   -3.8699    0.0000 C.3     1  UNL1        0.1119
     55 C           4.2690   -2.3699    0.0000 C.3     1  UNL1        0.0730
     56 H          12.0067    0.4886    0.0000 H       1  UNL1        0.0309
     57 H          11.9634    0.2638    0.0000 H       1  UNL1        0.0310
     58 H          11.1026   -1.1009    0.0000 H       1  UNL1        0.0313
     59 H          10.8685    3.0939    0.0000 H       1  UNL1        0.0310
     60 H           9.2820    1.4054    0.0000 H       1  UNL1        0.0271
     61 H           8.8862    0.7136    0.0000 H       1  UNL1        0.0271
     62 H          12.3302    1.0008    0.0000 H       1  UNL1        0.0268
     63 H          12.4981    1.8131    0.0000 H       1  UNL1        0.0268
     64 H           8.8892   -0.0711    0.0000 H       1  UNL1        0.0268
     65 H           9.2904   -0.7598    0.0000 H       1  UNL1        0.0268
     66 H          12.1431    2.6005    0.0000 H       1  UNL1        0.0268
     67 H          11.4231    3.0124    0.0000 H       1  UNL1        0.0268
     68 H          12.7562   -0.7721    0.0000 H       1  UNL1        0.0310
     69 H          12.3465   -0.0870    0.0000 H       1  UNL1        0.0310
     70 H           9.4793    3.5012    0.0000 H       1  UNL1        0.0337
     71 H           9.8004    2.3617    0.0000 H       1  UNL1        0.0235
     72 H           8.9544    2.1315    0.0000 H       1  UNL1        0.0235
     73 H           9.1846    1.2855    0.0000 H       1  UNL1        0.0235
     74 H           8.8651   -2.5416    0.0000 H       1  UNL1        0.0603
     75 H          12.6955   -2.0204    0.0000 H       1  UNL1        0.0572
     76 H           9.8041   -0.6755    0.0000 H       1  UNL1        0.0239
     77 H           8.9563   -0.8992    0.0000 H       1  UNL1        0.0239
     78 H           9.1799   -1.7470    0.0000 H       1  UNL1        0.0239
     79 H          11.4845   -3.9050    0.0000 H       1  UNL1        0.0335
     80 H          11.8783   -3.2106    0.0000 H       1  UNL1        0.0335
     81 H           8.7840   -3.2106    0.0000 H       1  UNL1        0.0315
     82 H           9.1778   -3.9050    0.0000 H       1  UNL1        0.0315
     83 H          10.7723    3.3625    0.0000 H       1  UNL1        0.0740
     84 H          10.8687   -4.1789    0.0000 H       1  UNL1        0.0601
     85 H           8.7873    3.4375    0.0000 H       1  UNL1        0.0234
     86 H           8.3113    2.7011    0.0000 H       1  UNL1        0.0234
     87 H           9.0477    2.2251    0.0000 H       1  UNL1        0.0234
     88 H          11.2028    3.5834    0.0000 H       1  UNL1        0.0346
     89 H          11.7940    4.1180    0.0000 H       1  UNL1        0.0346
     90 H           8.0063   -2.0273    0.0000 H       1  UNL1        0.2098
     91 H          10.0021   -5.6799    0.0000 H       1  UNL1        0.0937
     92 H           9.4651   -6.9899    0.0000 H       1  UNL1        0.0671
     93 H          12.5948    4.7585    0.0000 H       1  UNL1        0.0275
     94 H          13.0707    5.4949    0.0000 H       1  UNL1        0.0275
     95 H          12.3344    5.9709    0.0000 H       1  UNL1        0.0275
     96 H          11.6712    6.5582    0.0000 H       1  UNL1        0.0609
     97 H          11.5038    7.3375    0.0000 H       1  UNL1        0.0609
     98 H           8.0622   -7.1799    0.0000 H       1  UNL1        0.0648
     99 H           7.7331   -4.7499    0.0000 H       1  UNL1        0.0647
    100 H           7.1962   -6.0599    0.0000 H       1  UNL1        0.0647
    101 H          10.3312   -7.4899    0.0000 H       1  UNL1        0.2101
    102 H           7.2656   -4.3950    0.0000 H       1  UNL1        0.0587
    103 H           6.4685   -4.3950    0.0000 H       1  UNL1        0.0587
    104 H          10.6428    8.1799    0.0000 H       1  UNL1        0.2099
    105 H           8.0622   -8.1799    0.0000 H       1  UNL1        0.2100
    106 H           6.8671   -7.4899    0.0000 H       1  UNL1        0.2100
    107 H           5.1350   -5.4899    0.0000 H       1  UNL1        0.0937
    108 H           3.7320   -5.6799    0.0000 H       1  UNL1        0.0671
    109 H           2.8660   -4.5599    0.0000 H       1  UNL1        0.0648
    110 H           4.8059   -3.0599    0.0000 H       1  UNL1        0.0647
    111 H           3.4030   -3.2499    0.0000 H       1  UNL1        0.0647
    112 H           3.7320   -6.6799    0.0000 H       1  UNL1        0.2101
    113 H           4.8796   -2.4776    0.0000 H       1  UNL1        0.0584
    114 H           4.4810   -1.7873    0.0000 H       1  UNL1        0.0584
    115 H           2.0000   -5.0599    0.0000 H       1  UNL1        0.2100
    116 H           2.0000   -3.6799    0.0000 H       1  UNL1        0.2100
    117 H           3.4030   -1.2499    0.0000 H       1  UNL1        0.2095
@<TRIPOS>BOND
     1    30     1    1
     2     1    90    1
     3     2    35    1
     4     2    41    1
     5    36     3    1
     6    40     3    1
     7     4    40    1
     8     4    47    1
     9     5    41    2
    10    43     6    1
    11     6   101    1
    12     7    45    1
    13     7   104    1
    14    46     8    1
    15     8   105    1
    16    48     9    1
    17     9   106    1
    18    10    49    1
    19    50    10    1
    20    11    50    1
    21    11    53    1
    22    51    12    1
    23    12   112    1
    24    52    13    1
    25    13   115    1
    26    54    14    1
    27    14   116    1
    28    15    55    1
    29    15   117    1
    30    16    17    1
    31    16    20    1
    32    16    21    1
    33    16    28    1
    34    17    18    1
    35    17    23    1
    36    17    56    1
    37    18    19    1
    38    18    26    1
    39    18    57    1
    40    19    22    1
    41    19    24    1
    42    19    58    1
    43    20    25    1
    44    20    27    1
    45    20    59    1
    46    21    24    1
    47    21    60    1
    48    21    61    1
    49    22    29    1
    50    22    30    1
    51    22    32    1
    52    23    25    1
    53    23    62    1
    54    23    63    1
    55    24    64    1
    56    24    65    1
    57    25    66    1
    58    25    67    1
    59    26    31    1
    60    26    68    1
    61    26    69    1
    62    27    35    1
    63    27    37    1
    64    27    70    1
    65    28    71    1
    66    28    72    1
    67    28    73    1
    68    29    31    2
    69    29    33    1
    70    30    34    1
    71    30    74    1
    72    31    75    1
    73    32    76    1
    74    32    77    1
    75    32    78    1
    76    33    36    1
    77    33    79    1
    78    33    80    1
    79    34    36    1
    80    34    81    1
    81    34    82    1
    82    35    38    1
    83    35    83    1
    84    36    84    1
    85    37    85    1
    86    37    86    1
    87    37    87    1
    88    38    39    1
    89    38    88    1
    90    38    89    1
    91    39    42    2
    92    39    44    1
    93    40    43    1
    94    40    91    1
    95    41    42    1
    96    42    45    1
    97    43    46    1
    98    43    92    1
    99    44    93    1
   100    44    94    1
   101    44    95    1
   102    45    96    1
   103    45    97    1
   104    46    48    1
   105    46    98    1
   106    47    48    1
   107    47    49    1
   108    47    99    1
   109    48   100    1
   110    49   102    1
   111    49   103    1
   112    50    51    1
   113    50   107    1
   114    51    52    1
   115    51   108    1
   116    52    54    1
   117    52   109    1
   118    53    54    1
   119    53    55    1
   120    53   110    1
   121    54   111    1
   122    55   113    1
   123    55   114    1
