@<TRIPOS>MOLECULE
IMPHY015596
 40 42 0 0 0
SMALL
GASTEIGER

@<TRIPOS>ATOM
      1 O           5.9025   -2.8390    0.0000 O.2     1  UNL1       -0.3007
      2 C           4.3350    0.2984    0.0000 C.3     1  UNL1       -0.0201
      3 C           4.6770    1.2381    0.0000 C.3     1  UNL1       -0.0233
      4 C           2.9623    0.8904    0.0000 C.3     1  UNL1       -0.0346
      5 C           2.7034    1.8563    0.0000 C.3     1  UNL1       -0.0348
      6 C           5.1199   -0.3116    0.0000 C.3     1  UNL1       -0.0259
      7 C           3.4401    2.8390    0.0000 C.3     1  UNL1       -0.0463
      8 C           5.6704    1.2008    0.0000 C.3     1  UNL1       -0.0466
      9 C           1.5633    0.3816    0.0000 C.3     1  UNL1       -0.0494
     10 C           1.3045    1.3475    0.0000 C.3     1  UNL1       -0.0494
     11 C           5.9436    0.2450    0.0000 C.3     1  UNL1       -0.0485
     12 C           3.9930   -0.6413    0.0000 C.3     1  UNL1       -0.0585
     13 C           5.0190    2.1778    0.0000 C.3     1  UNL1       -0.0588
     14 C           5.0867   -1.3110    0.0000 C.3     1  UNL1        0.0150
     15 C           4.2046   -1.7820    0.0000 C.3     1  UNL1       -0.0557
     16 C           5.9357   -1.8395    0.0000 C.2     1  UNL1        0.1234
     17 H           3.1823    0.0694    0.0000 H       1  UNL1        0.0306
     18 H           2.4835    2.6774    0.0000 H       1  UNL1        0.0306
     19 H           5.6626   -0.6115    0.0000 H       1  UNL1        0.0313
     20 H           3.1223    3.3713    0.0000 H       1  UNL1        0.0271
     21 H           4.0532    2.9309    0.0000 H       1  UNL1        0.0271
     22 H           5.6284    1.8194    0.0000 H       1  UNL1        0.0271
     23 H           6.2811    1.3076    0.0000 H       1  UNL1        0.0271
     24 H           1.7583   -0.2070    0.0000 H       1  UNL1        0.0268
     25 H           0.9694    0.2038    0.0000 H       1  UNL1        0.0268
     26 H           0.7105    1.1697    0.0000 H       1  UNL1        0.0268
     27 H           1.1096    1.9361    0.0000 H       1  UNL1        0.0268
     28 H           6.5185    0.4771    0.0000 H       1  UNL1        0.0268
     29 H           6.2348   -0.3023    0.0000 H       1  UNL1        0.0268
     30 H           4.5756   -0.8534    0.0000 H       1  UNL1        0.0235
     31 H           3.7809   -1.2239    0.0000 H       1  UNL1        0.0235
     32 H           3.4104   -0.4293    0.0000 H       1  UNL1        0.0235
     33 H           4.4364    2.3898    0.0000 H       1  UNL1        0.0235
     34 H           5.2311    2.7604    0.0000 H       1  UNL1        0.0235
     35 H           5.6016    1.9657    0.0000 H       1  UNL1        0.0235
     36 H           5.0662   -1.9307    0.0000 H       1  UNL1        0.0375
     37 H           4.4966   -2.3290    0.0000 H       1  UNL1        0.0236
     38 H           3.6577   -2.0741    0.0000 H       1  UNL1        0.0236
     39 H           3.9126   -1.2351    0.0000 H       1  UNL1        0.0236
     40 H           6.4826   -1.5475    0.0000 H       1  UNL1        0.1029
@<TRIPOS>BOND
     1     1    16    2
     2     2     3    1
     3     2     4    1
     4     2     6    1
     5     2    12    1
     6     3     5    1
     7     3     8    1
     8     3    13    1
     9     4     7    1
    10     4     9    1
    11     4    17    1
    12     5     7    1
    13     5    10    1
    14     5    18    1
    15     6    11    1
    16     6    14    1
    17     6    19    1
    18     7    20    1
    19     7    21    1
    20     8    11    1
    21     8    22    1
    22     8    23    1
    23     9    10    1
    24     9    24    1
    25     9    25    1
    26    10    26    1
    27    10    27    1
    28    11    28    1
    29    11    29    1
    30    12    30    1
    31    12    31    1
    32    12    32    1
    33    13    33    1
    34    13    34    1
    35    13    35    1
    36    14    15    1
    37    14    16    1
    38    14    36    1
    39    15    37    1
    40    15    38    1
    41    15    39    1
    42    16    40    1
