@<TRIPOS>MOLECULE
IMPHY001190
 143 149 0 0 0
SMALL
GASTEIGER

@<TRIPOS>ATOM
      1 O          18.6600   -2.1484    0.0000 O.3     1  UNL1       -0.3849
      2 O          18.0960   -2.4770    0.0000 O.3     1  UNL1       -0.3851
      3 O          17.4387    1.2866    0.0000 O.3     1  UNL1       -0.4575
      4 O          18.9445    1.0487    0.0000 O.3     1  UNL1       -0.3803
      5 O          12.9292   -3.2832    0.0000 O.3     1  UNL1       -0.3477
      6 O          19.9567    1.6821    0.0000 O.2     1  UNL1       -0.2946
      7 O          15.7067    1.2799    0.0000 O.2     1  UNL1       -0.2456
      8 O          11.1972   -3.2832    0.0000 O.3     1  UNL1       -0.3456
      9 O          11.1972   -0.2832    0.0000 O.3     1  UNL1       -0.3770
     10 O           9.4651   -1.2832    0.0000 O.3     1  UNL1       -0.3429
     11 O           7.7331   -1.2832    0.0000 O.3     1  UNL1       -0.3456
     12 O           7.7331   -4.2832    0.0000 O.3     1  UNL1       -0.3770
     13 O           6.0010   -3.2832    0.0000 O.3     1  UNL1       -0.3429
     14 O           4.2690   -3.2832    0.0000 O.3     1  UNL1       -0.3456
     15 O           4.2690   -0.2832    0.0000 O.3     1  UNL1       -0.3770
     16 O           2.5369   -1.2832    0.0000 O.3     1  UNL1       -0.3867
     17 C          18.3144   -1.2101    0.0000 C.3     1  UNL1        0.1070
     18 C          18.3105   -0.2101    0.0000 C.3     1  UNL1        0.0718
     19 C          17.4503   -1.7134    0.0000 C.3     1  UNL1        0.1024
     20 C          16.5823   -1.2168    0.0000 C.3     1  UNL1        0.0033
     21 C          17.4426    0.2866    0.0000 C.3     1  UNL1        0.1149
     22 C          19.2556    0.0983    0.0000 C.3     1  UNL1        0.1347
     23 C          15.6743   -1.7271    0.0000 C.3     1  UNL1       -0.0053
     24 C          16.5785   -0.2168    0.0000 C.3     1  UNL1       -0.0086
     25 C          19.2618   -1.5112    0.0000 C.3     1  UNL1       -0.0175
     26 C          19.8423   -0.7042    0.0000 C.3     1  UNL1       -0.0136
     27 C          17.4704   -2.7549    0.0000 C.3     1  UNL1       -0.0025
     28 C          18.3067    0.7899    0.0000 C.3     1  UNL1       -0.0503
     29 C          15.6703   -2.7687    0.0000 C.2     1  UNL1       -0.0647
     30 C          14.7453   -1.1666    0.0000 C.3     1  UNL1       -0.0412
     31 C          16.5744   -3.2861    0.0000 C.2     1  UNL1       -0.0813
     32 C          15.6782   -0.7271    0.0000 C.3     1  UNL1       -0.0555
     33 C          20.0633    0.6878    0.0000 C.2     1  UNL1        0.1623
     34 C          14.7370   -3.3221    0.0000 C.3     1  UNL1       -0.0047
     35 C          13.7994   -1.6982    0.0000 C.3     1  UNL1       -0.0254
     36 C          13.7953   -2.7832    0.0000 C.3     1  UNL1        0.0654
     37 C          20.9777    0.2830    0.0000 C.3     1  UNL1       -0.0031
     38 C          16.5708    1.7832    0.0000 C.2     1  UNL1        0.3322
     39 C          12.0632   -2.7832    0.0000 C.3     1  UNL1        0.1624
     40 C          16.5669    2.7832    0.0000 C.2     1  UNL1        0.0217
     41 C          12.0632   -1.7832    0.0000 C.3     1  UNL1        0.0272
     42 C          11.1972   -1.2832    0.0000 C.3     1  UNL1        0.0915
     43 C          15.6990    3.2799    0.0000 C.2     1  UNL1       -0.0633
     44 C          10.3312   -2.7832    0.0000 C.3     1  UNL1        0.0875
     45 C          10.3312   -1.7832    0.0000 C.3     1  UNL1        0.1137
     46 C          15.6951    4.2799    0.0000 C.3     1  UNL1       -0.0253
     47 C          14.8349    2.7765    0.0000 C.3     1  UNL1       -0.0430
     48 C           9.4651   -3.2832    0.0000 C.3     1  UNL1       -0.0361
     49 C          14.8272    4.7765    0.0000 C.3     1  UNL1       -0.0590
     50 C          16.5592    4.7832    0.0000 C.3     1  UNL1       -0.0590
     51 C           8.5991   -1.7832    0.0000 C.3     1  UNL1        0.1626
     52 C          12.0632    0.2168    0.0000 C.3     1  UNL1        0.0369
     53 C           8.5991   -2.7832    0.0000 C.3     1  UNL1        0.0272
     54 C           7.7331   -3.2832    0.0000 C.3     1  UNL1        0.0915
     55 C           6.8671   -1.7832    0.0000 C.3     1  UNL1        0.0875
     56 C           6.8671   -2.7832    0.0000 C.3     1  UNL1        0.1137
     57 C           6.0010   -1.2832    0.0000 C.3     1  UNL1       -0.0361
     58 C           5.1350   -2.7832    0.0000 C.3     1  UNL1        0.1626
     59 C           8.5991   -4.7832    0.0000 C.3     1  UNL1        0.0369
     60 C           5.1350   -1.7832    0.0000 C.3     1  UNL1        0.0272
     61 C           4.2690   -1.2832    0.0000 C.3     1  UNL1        0.0911
     62 C           3.4030   -2.7832    0.0000 C.3     1  UNL1        0.0871
     63 C           3.4030   -1.7832    0.0000 C.3     1  UNL1        0.1073
     64 C           2.5369   -3.2832    0.0000 C.3     1  UNL1       -0.0361
     65 C           3.4030    0.2168    0.0000 C.3     1  UNL1        0.0369
     66 H          17.3168   -0.7889    0.0000 H       1  UNL1        0.0339
     67 H          16.9044    0.5945    0.0000 H       1  UNL1        0.0741
     68 H          16.3642    0.3650    0.0000 H       1  UNL1        0.0305
     69 H          15.9683   -0.3268    0.0000 H       1  UNL1        0.0305
     70 H          19.0129   -2.0790    0.0000 H       1  UNL1        0.0295
     71 H          19.8003   -1.8183    0.0000 H       1  UNL1        0.0295
     72 H          20.3047   -1.1171    0.0000 H       1  UNL1        0.0298
     73 H          20.3015   -0.2877    0.0000 H       1  UNL1        0.0298
     74 H          17.6906   -3.3344    0.0000 H       1  UNL1        0.0336
     75 H          18.0791   -2.6370    0.0000 H       1  UNL1        0.0336
     76 H          18.9267    0.7923    0.0000 H       1  UNL1        0.0238
     77 H          18.3043    1.4099    0.0000 H       1  UNL1        0.0238
     78 H          17.6867    0.7875    0.0000 H       1  UNL1        0.0238
     79 H          15.1517   -0.6984    0.0000 H       1  UNL1        0.0274
     80 H          14.3535   -0.6861    0.0000 H       1  UNL1        0.0274
     81 H          16.5791   -3.9060    0.0000 H       1  UNL1        0.0573
     82 H          19.2710   -2.2538    0.0000 H       1  UNL1        0.2103
     83 H          16.2981   -0.7295    0.0000 H       1  UNL1        0.0238
     84 H          15.6805   -0.1071    0.0000 H       1  UNL1        0.0238
     85 H          15.0582   -0.7247    0.0000 H       1  UNL1        0.0238
     86 H          18.2061   -3.0871    0.0000 H       1  UNL1        0.2103
     87 H          14.3415   -3.7996    0.0000 H       1  UNL1        0.0335
     88 H          15.1398   -3.7934    0.0000 H       1  UNL1        0.0335
     89 H          13.5926   -1.1137    0.0000 H       1  UNL1        0.0290
     90 H          13.1882   -1.8019    0.0000 H       1  UNL1        0.0290
     91 H          13.2589   -2.4722    0.0000 H       1  UNL1        0.0600
     92 H          19.3584    1.5103    0.0000 H       1  UNL1        0.2108
     93 H          20.7268   -0.2839    0.0000 H       1  UNL1        0.0307
     94 H          21.5447    0.0320    0.0000 H       1  UNL1        0.0307
     95 H          21.2287    0.8499    0.0000 H       1  UNL1        0.0307
     96 H          12.0632   -3.4032    0.0000 H       1  UNL1        0.0910
     97 H          17.1027    3.0953    0.0000 H       1  UNL1        0.0688
     98 H          12.6738   -1.8908    0.0000 H       1  UNL1        0.0340
     99 H          12.2753   -1.2006    0.0000 H       1  UNL1        0.0340
    100 H          11.7341   -0.9732    0.0000 H       1  UNL1        0.0624
    101 H          10.3312   -3.4032    0.0000 H       1  UNL1        0.0621
    102 H           9.7942   -2.0932    0.0000 H       1  UNL1        0.0649
    103 H          15.1594    3.9678    0.0000 H       1  UNL1        0.0340
    104 H          14.5228    3.3123    0.0000 H       1  UNL1        0.0275
    105 H          14.2991    2.4645    0.0000 H       1  UNL1        0.0275
    106 H          15.1469    2.2408    0.0000 H       1  UNL1        0.0275
    107 H           9.1551   -2.7463    0.0000 H       1  UNL1        0.0255
    108 H           8.9282   -3.5932    0.0000 H       1  UNL1        0.0255
    109 H           9.7751   -3.8201    0.0000 H       1  UNL1        0.0255
    110 H          15.1351    5.3146    0.0000 H       1  UNL1        0.0235
    111 H          14.2890    5.0844    0.0000 H       1  UNL1        0.0235
    112 H          14.5192    4.2384    0.0000 H       1  UNL1        0.0235
    113 H          16.8713    4.2474    0.0000 H       1  UNL1        0.0235
    114 H          17.0949    5.0953    0.0000 H       1  UNL1        0.0235
    115 H          16.2471    5.3189    0.0000 H       1  UNL1        0.0235
    116 H           8.5991   -1.1632    0.0000 H       1  UNL1        0.0910
    117 H          12.3732   -0.3201    0.0000 H       1  UNL1        0.0524
    118 H          12.6002    0.5268    0.0000 H       1  UNL1        0.0524
    119 H          11.7532    0.7537    0.0000 H       1  UNL1        0.0524
    120 H           8.8112   -3.3658    0.0000 H       1  UNL1        0.0340
    121 H           9.2097   -2.6755    0.0000 H       1  UNL1        0.0340
    122 H           8.2700   -3.5932    0.0000 H       1  UNL1        0.0624
    123 H           6.8671   -1.1632    0.0000 H       1  UNL1        0.0621
    124 H           6.3301   -2.4732    0.0000 H       1  UNL1        0.0649
    125 H           6.3110   -0.7463    0.0000 H       1  UNL1        0.0255
    126 H           5.4641   -0.9732    0.0000 H       1  UNL1        0.0255
    127 H           5.6910   -1.8201    0.0000 H       1  UNL1        0.0255
    128 H           5.1350   -3.4032    0.0000 H       1  UNL1        0.0910
    129 H           8.2891   -5.3201    0.0000 H       1  UNL1        0.0524
    130 H           9.1360   -5.0932    0.0000 H       1  UNL1        0.0524
    131 H           8.9091   -4.2463    0.0000 H       1  UNL1        0.0524
    132 H           5.7456   -1.8908    0.0000 H       1  UNL1        0.0340
    133 H           5.3471   -1.2006    0.0000 H       1  UNL1        0.0340
    134 H           4.8059   -0.9732    0.0000 H       1  UNL1        0.0624
    135 H           3.4030   -3.4032    0.0000 H       1  UNL1        0.0621
    136 H           3.4030   -1.1632    0.0000 H       1  UNL1        0.0645
    137 H           2.2269   -2.7463    0.0000 H       1  UNL1        0.0255
    138 H           2.0000   -3.5932    0.0000 H       1  UNL1        0.0255
    139 H           2.8469   -3.8201    0.0000 H       1  UNL1        0.0255
    140 H           2.0000   -1.5932    0.0000 H       1  UNL1        0.2100
    141 H           3.7130    0.7537    0.0000 H       1  UNL1        0.0524
    142 H           2.8660    0.5268    0.0000 H       1  UNL1        0.0524
    143 H           3.0930   -0.3201    0.0000 H       1  UNL1        0.0524
@<TRIPOS>BOND
     1    17     1    1
     2     1    82    1
     3    19     2    1
     4     2    86    1
     5    21     3    1
     6     3    38    1
     7    22     4    1
     8     4    92    1
     9    36     5    1
    10    39     5    1
    11     6    33    2
    12     7    38    2
    13     8    39    1
    14     8    44    1
    15    42     9    1
    16     9    52    1
    17    45    10    1
    18    51    10    1
    19    11    51    1
    20    11    55    1
    21    54    12    1
    22    12    59    1
    23    56    13    1
    24    58    13    1
    25    14    58    1
    26    14    62    1
    27    61    15    1
    28    15    65    1
    29    63    16    1
    30    16   140    1
    31    17    18    1
    32    17    19    1
    33    17    25    1
    34    18    21    1
    35    18    22    1
    36    18    28    1
    37    19    20    1
    38    19    27    1
    39    20    23    1
    40    20    24    1
    41    20    66    1
    42    21    24    1
    43    21    67    1
    44    22    26    1
    45    22    33    1
    46    23    29    1
    47    23    30    1
    48    23    32    1
    49    24    68    1
    50    24    69    1
    51    25    26    1
    52    25    70    1
    53    25    71    1
    54    26    72    1
    55    26    73    1
    56    27    31    1
    57    27    74    1
    58    27    75    1
    59    28    76    1
    60    28    77    1
    61    28    78    1
    62    29    31    2
    63    29    34    1
    64    30    35    1
    65    30    79    1
    66    30    80    1
    67    31    81    1
    68    32    83    1
    69    32    84    1
    70    32    85    1
    71    33    37    1
    72    34    36    1
    73    34    87    1
    74    34    88    1
    75    35    36    1
    76    35    89    1
    77    35    90    1
    78    36    91    1
    79    37    93    1
    80    37    94    1
    81    37    95    1
    82    38    40    1
    83    39    41    1
    84    39    96    1
    85    40    43    2
    86    40    97    1
    87    41    42    1
    88    41    98    1
    89    41    99    1
    90    42    45    1
    91    42   100    1
    92    43    46    1
    93    43    47    1
    94    44    45    1
    95    44    48    1
    96    44   101    1
    97    45   102    1
    98    46    49    1
    99    46    50    1
   100    46   103    1
   101    47   104    1
   102    47   105    1
   103    47   106    1
   104    48   107    1
   105    48   108    1
   106    48   109    1
   107    49   110    1
   108    49   111    1
   109    49   112    1
   110    50   113    1
   111    50   114    1
   112    50   115    1
   113    51    53    1
   114    51   116    1
   115    52   117    1
   116    52   118    1
   117    52   119    1
   118    53    54    1
   119    53   120    1
   120    53   121    1
   121    54    56    1
   122    54   122    1
   123    55    56    1
   124    55    57    1
   125    55   123    1
   126    56   124    1
   127    57   125    1
   128    57   126    1
   129    57   127    1
   130    58    60    1
   131    58   128    1
   132    59   129    1
   133    59   130    1
   134    59   131    1
   135    60    61    1
   136    60   132    1
   137    60   133    1
   138    61    63    1
   139    61   134    1
   140    62    63    1
   141    62    64    1
   142    62   135    1
   143    63   136    1
   144    64   137    1
   145    64   138    1
   146    64   139    1
   147    65   141    1
   148    65   142    1
   149    65   143    1
