@<TRIPOS>MOLECULE
IMPHY004891
 44 46 0 0 0
SMALL
GASTEIGER

@<TRIPOS>ATOM
      1 O           7.2901    0.4397    0.0000 O.3     1  UNL1       -0.4846
      2 O           3.7702    0.4397    0.0000 O.2     1  UNL1       -0.4216
      3 O           7.2785   -2.6296    0.0000 O.2     1  UNL1       -0.2917
      4 O           5.5301   -2.5950    0.0000 O.3     1  UNL1       -0.5052
      5 O           2.0000    0.4292    0.0000 O.2     1  UNL1       -0.2452
      6 C           8.1962   -0.0742    0.0000 C.3     1  UNL1        0.1121
      7 C           5.5301    1.4050    0.0000 C.3     1  UNL1        0.0148
      8 C           5.5301    0.4050    0.0000 C.ar    1  UNL1        0.0474
      9 C           6.3961   -0.0950    0.0000 C.ar    1  UNL1        0.1428
     10 C           8.1962   -1.1158    0.0000 C.3     1  UNL1        0.0500
     11 C           6.3961   -1.0950    0.0000 C.ar    1  UNL1        0.1015
     12 C           7.2901   -1.6297    0.0000 C.2     1  UNL1        0.1740
     13 C           4.6641   -0.0950    0.0000 C.ar    1  UNL1        0.1500
     14 C           9.1962   -0.0703    0.0000 C.3     1  UNL1       -0.0248
     15 C           8.6928    0.7938    0.0000 C.3     1  UNL1       -0.0248
     16 C           5.5301   -1.5950    0.0000 C.ar    1  UNL1        0.1415
     17 C           4.6641   -1.0950    0.0000 C.ar    1  UNL1        0.0602
     18 C           4.5301    1.4050    0.0000 C.3     1  UNL1       -0.0521
     19 C           6.5301    1.4050    0.0000 C.3     1  UNL1       -0.0521
     20 C           5.5301    2.4050    0.0000 C.2     1  UNL1       -0.0809
     21 C           3.7702   -1.6297    0.0000 C.ar    1  UNL1       -0.0408
     22 C           2.8641   -1.1158    0.0000 C.ar    1  UNL1        0.0237
     23 C           2.8641   -0.0742    0.0000 C.ar    1  UNL1        0.3372
     24 C           4.6641    2.9050    0.0000 C.2     1  UNL1       -0.1018
     25 H           8.4052   -1.6995    0.0000 H       1  UNL1        0.0384
     26 H           8.8070   -1.0097    0.0000 H       1  UNL1        0.0384
     27 H           9.1985   -0.6903    0.0000 H       1  UNL1        0.0268
     28 H           9.2310    0.4858    0.0000 H       1  UNL1        0.0268
     29 H           9.0008    1.3319    0.0000 H       1  UNL1        0.0268
     30 H           8.1547    1.1017    0.0000 H       1  UNL1        0.0268
     31 H           9.8162   -0.0679    0.0000 H       1  UNL1        0.0268
     32 H           9.1938    0.5497    0.0000 H       1  UNL1        0.0268
     33 H           6.5301    0.7850    0.0000 H       1  UNL1        0.0241
     34 H           7.1501    1.4050    0.0000 H       1  UNL1        0.0241
     35 H           6.5301    2.0250    0.0000 H       1  UNL1        0.0241
     36 H           4.5301    2.0250    0.0000 H       1  UNL1        0.0241
     37 H           3.9101    1.4050    0.0000 H       1  UNL1        0.0241
     38 H           4.5301    0.7850    0.0000 H       1  UNL1        0.0241
     39 H           6.0671    2.7150    0.0000 H       1  UNL1        0.0575
     40 H           3.7773   -2.2496    0.0000 H       1  UNL1        0.0628
     41 H           2.3284   -1.4279    0.0000 H       1  UNL1        0.0689
     42 H           4.9932   -2.9050    0.0000 H       1  UNL1        0.2922
     43 H           4.6641    3.5250    0.0000 H       1  UNL1        0.0532
     44 H           4.1272    2.5950    0.0000 H       1  UNL1        0.0532
@<TRIPOS>BOND
     1     1     6    1
     2     1     9    1
     3     2    13   ar
     4     2    23   ar
     5     3    12    2
     6     4    16    1
     7     4    42    1
     8     5    23    2
     9     6    10    1
    10     6    14    1
    11     6    15    1
    12     7     8    1
    13     7    18    1
    14     7    19    1
    15     7    20    1
    16     8     9   ar
    17     8    13   ar
    18     9    11   ar
    19    10    12    1
    20    10    25    1
    21    10    26    1
    22    11    12    1
    23    11    16   ar
    24    13    17   ar
    25    14    27    1
    26    14    31    1
    27    14    32    1
    28    15    28    1
    29    15    29    1
    30    15    30    1
    31    16    17   ar
    32    17    21   ar
    33    18    36    1
    34    18    37    1
    35    18    38    1
    36    19    33    1
    37    19    34    1
    38    19    35    1
    39    20    24    2
    40    20    39    1
    41    21    22   ar
    42    21    40    1
    43    22    23   ar
    44    22    41    1
    45    24    43    1
    46    24    44    1
