@<TRIPOS>MOLECULE
IMPHY001240
 21 21 0 0 0
SMALL
GASTEIGER

@<TRIPOS>ATOM
      1 O           2.8660    1.8450    0.0000 O.3     1  UNL1       -0.4773
      2 O           2.0000    0.3450    0.0000 O.2     1  UNL1       -0.2455
      3 N           4.5981   -1.1550    0.0000 N.3     1  UNL1       -0.3007
      4 C           5.4641   -0.6550    0.0000 C.3     1  UNL1        0.0024
      5 C           3.7320   -0.6550    0.0000 C.3     1  UNL1        0.0302
      6 C           5.4641    0.3450    0.0000 C.3     1  UNL1       -0.0211
      7 C           3.7320    0.3450    0.0000 C.2     1  UNL1        0.0465
      8 C           4.5981    0.8450    0.0000 C.2     1  UNL1       -0.0716
      9 C           4.5981   -2.1550    0.0000 C.3     1  UNL1       -0.0124
     10 C           2.8660    0.8450    0.0000 C.2     1  UNL1        0.3337
     11 H           5.6762   -1.2376    0.0000 H       1  UNL1        0.0429
     12 H           6.0747   -0.5473    0.0000 H       1  UNL1        0.0429
     13 H           3.1215   -0.5473    0.0000 H       1  UNL1        0.0478
     14 H           3.5200   -1.2376    0.0000 H       1  UNL1        0.0478
     15 H           6.0747    0.2373    0.0000 H       1  UNL1        0.0320
     16 H           5.6762    0.9276    0.0000 H       1  UNL1        0.0320
     17 H           4.5981    1.4650    0.0000 H       1  UNL1        0.0578
     18 H           3.9781   -2.1550    0.0000 H       1  UNL1        0.0391
     19 H           4.5981   -2.7750    0.0000 H       1  UNL1        0.0391
     20 H           5.2181   -2.1550    0.0000 H       1  UNL1        0.0391
     21 H           2.3291    2.1550    0.0000 H       1  UNL1        0.2954
@<TRIPOS>BOND
     1     1    10    1
     2     1    21    1
     3     2    10    2
     4     3     4    1
     5     3     5    1
     6     3     9    1
     7     4     6    1
     8     4    11    1
     9     4    12    1
    10     5     7    1
    11     5    13    1
    12     5    14    1
    13     6     8    1
    14     6    15    1
    15     6    16    1
    16     7     8    2
    17     7    10    1
    18     8    17    1
    19     9    18    1
    20     9    19    1
    21     9    20    1
