@<TRIPOS>MOLECULE
IMPHY012361
 44 46 0 0 0
SMALL
GASTEIGER

@<TRIPOS>ATOM
      1 O           3.5836    1.2701    0.0000 O.3     1  UNL1       -0.4567
      2 O           5.3958   -1.5346    0.0000 O.3     1  UNL1       -0.4608
      3 O           8.0321    0.9622    0.0000 O.3     1  UNL1       -0.3912
      4 O           2.0000    0.4654    0.0000 O.2     1  UNL1       -0.2453
      5 O           7.1279   -1.5346    0.0000 O.2     1  UNL1       -0.2512
      6 C           6.2619    0.9654    0.0000 C.3     1  UNL1        0.0071
      7 C           5.3958    1.4654    0.0000 C.3     1  UNL1        0.0255
      8 C           4.5298    0.9654    0.0000 C.3     1  UNL1        0.1207
      9 C           6.2619   -0.0346    0.0000 C.3     1  UNL1       -0.0065
     10 C           4.5298   -0.0346    0.0000 C.3     1  UNL1        0.0650
     11 C           7.1719    1.4722    0.0000 C.3     1  UNL1        0.0617
     12 C           5.3958   -0.5346    0.0000 C.3     1  UNL1        0.1140
     13 C           5.3798    2.5069    0.0000 C.2     1  UNL1       -0.0693
     14 C           7.1799    2.5138    0.0000 C.3     1  UNL1       -0.0226
     15 C           7.1279    0.4654    0.0000 C.3     1  UNL1       -0.0564
     16 C           6.2778    3.0346    0.0000 C.3     1  UNL1       -0.0292
     17 C           3.5836   -0.3394    0.0000 C.2     1  UNL1        0.0396
     18 C           3.0000    0.4654    0.0000 C.2     1  UNL1        0.3354
     19 C           4.5080    2.9968    0.0000 C.2     1  UNL1       -0.0990
     20 C           3.2729   -1.2899    0.0000 C.2     1  UNL1       -0.0882
     21 C           6.2619   -2.0346    0.0000 C.2     1  UNL1        0.3042
     22 C           6.2619   -3.0346    0.0000 C.3     1  UNL1        0.0332
     23 H           6.1287    1.8960    0.0000 H       1  UNL1        0.0388
     24 H           4.4399    1.8106    0.0000 H       1  UNL1        0.0747
     25 H           6.4739   -0.6172    0.0000 H       1  UNL1        0.0307
     26 H           6.8725    0.0730    0.0000 H       1  UNL1        0.0307
     27 H           4.4399   -0.8799    0.0000 H       1  UNL1        0.0423
     28 H           7.7118    1.7770    0.0000 H       1  UNL1        0.0599
     29 H           5.9328   -0.8446    0.0000 H       1  UNL1        0.0741
     30 H           7.7899    2.4030    0.0000 H       1  UNL1        0.0293
     31 H           7.3935    3.0959    0.0000 H       1  UNL1        0.0293
     32 H           6.8179   -0.0716    0.0000 H       1  UNL1        0.0236
     33 H           7.6648    0.1554    0.0000 H       1  UNL1        0.0236
     34 H           7.4379    1.0023    0.0000 H       1  UNL1        0.0236
     35 H           6.6751    3.5106    0.0000 H       1  UNL1        0.0311
     36 H           5.8769    3.5075    0.0000 H       1  UNL1        0.0311
     37 H           8.5726    1.2660    0.0000 H       1  UNL1        0.2098
     38 H           4.5009    3.6168    0.0000 H       1  UNL1        0.0535
     39 H           3.9747    2.6806    0.0000 H       1  UNL1        0.0535
     40 H           2.6663   -1.4177    0.0000 H       1  UNL1        0.0540
     41 H           3.6870   -1.7514    0.0000 H       1  UNL1        0.0540
     42 H           5.6419   -3.0346    0.0000 H       1  UNL1        0.0342
     43 H           6.2619   -3.6546    0.0000 H       1  UNL1        0.0342
     44 H           6.8819   -3.0346    0.0000 H       1  UNL1        0.0342
@<TRIPOS>BOND
     1     1     8    1
     2     1    18    1
     3    12     2    1
     4     2    21    1
     5    11     3    1
     6     3    37    1
     7     4    18    2
     8     5    21    2
     9     6     7    1
    10     6     9    1
    11     6    11    1
    12     6    15    1
    13     7     8    1
    14     7    13    1
    15     7    23    1
    16     8    10    1
    17     8    24    1
    18     9    12    1
    19     9    25    1
    20     9    26    1
    21    10    12    1
    22    10    17    1
    23    10    27    1
    24    11    14    1
    25    11    28    1
    26    12    29    1
    27    13    16    1
    28    13    19    2
    29    14    16    1
    30    14    30    1
    31    14    31    1
    32    15    32    1
    33    15    33    1
    34    15    34    1
    35    16    35    1
    36    16    36    1
    37    17    18    1
    38    17    20    2
    39    19    38    1
    40    19    39    1
    41    20    40    1
    42    20    41    1
    43    21    22    1
    44    22    42    1
    45    22    43    1
    46    22    44    1
