@<TRIPOS>MOLECULE
IMPHY017422
 22 22 0 0 0
SMALL
GASTEIGER

@<TRIPOS>ATOM
      1 O           2.8090    0.3784    0.0000 O.2     1  UNL1       -0.4635
      2 C           5.7281   -0.6300    0.0000 C.3     1  UNL1       -0.0346
      3 C           5.9360   -1.6082    0.0000 C.3     1  UNL1       -0.0525
      4 C           4.7770   -0.3210    0.0000 C.2     1  UNL1       -0.0805
      5 C           6.8870   -1.9172    0.0000 C.3     1  UNL1       -0.0650
      6 C           4.5691    0.6571    0.0000 C.2     1  UNL1       -0.0233
      7 C           3.6180    0.9661    0.0000 C.ar    1  UNL1        0.1274
      8 C           3.3090    1.9172    0.0000 C.ar    1  UNL1       -0.0165
      9 C           2.3090    1.9172    0.0000 C.ar    1  UNL1       -0.0233
     10 C           2.0000    0.9661    0.0000 C.ar    1  UNL1        0.0925
     11 H           6.3477   -0.6084    0.0000 H       1  UNL1        0.0307
     12 H           5.8144   -0.0161    0.0000 H       1  UNL1        0.0307
     13 H           5.3164   -1.6298    0.0000 H       1  UNL1        0.0266
     14 H           5.8497   -2.2222    0.0000 H       1  UNL1        0.0266
     15 H           4.3162   -0.7359    0.0000 H       1  UNL1        0.0573
     16 H           6.6954   -2.5069    0.0000 H       1  UNL1        0.0230
     17 H           7.4767   -2.1088    0.0000 H       1  UNL1        0.0230
     18 H           7.0786   -1.3276    0.0000 H       1  UNL1        0.0230
     19 H           5.0298    1.0720    0.0000 H       1  UNL1        0.0651
     20 H           3.6734    2.4188    0.0000 H       1  UNL1        0.0655
     21 H           1.9446    2.4188    0.0000 H       1  UNL1        0.0649
     22 H           1.4103    0.7746    0.0000 H       1  UNL1        0.1029
@<TRIPOS>BOND
     1     1     7   ar
     2     1    10   ar
     3     2     3    1
     4     2     4    1
     5     2    11    1
     6     2    12    1
     7     3     5    1
     8     3    13    1
     9     3    14    1
    10     4     6    2
    11     4    15    1
    12     5    16    1
    13     5    17    1
    14     5    18    1
    15     6     7    1
    16     6    19    1
    17     7     8   ar
    18     8     9   ar
    19     8    20    1
    20     9    10   ar
    21     9    21    1
    22    10    22    1
