@<TRIPOS>MOLECULE
IMPHY016961
 37 38 0 0 0
SMALL
GASTEIGER

@<TRIPOS>ATOM
      1 O           5.2665    2.8323    0.0000 O.2     1  UNL1       -0.2974
      2 C           4.0835   -1.8919    0.0000 C.3     1  UNL1       -0.0310
      3 C           4.4245   -0.9430    0.0000 C.3     1  UNL1       -0.0293
      4 C           3.4848   -0.6010    0.0000 C.3     1  UNL1       -0.0163
      5 C           3.1361   -1.5471    0.0000 C.3     1  UNL1       -0.0408
      6 C           5.3642   -0.6010    0.0000 C.3     1  UNL1       -0.0488
      7 C           3.7434   -2.8323    0.0000 C.3     1  UNL1       -0.0595
      8 C           5.0239   -2.2320    0.0000 C.3     1  UNL1       -0.0595
      9 C           2.9848    0.2650    0.0000 C.2     1  UNL1       -0.0728
     10 C           5.8642    0.2650    0.0000 C.3     1  UNL1       -0.0461
     11 C           3.1585    1.2498    0.0000 C.3     1  UNL1       -0.0250
     12 C           5.6905    1.2498    0.0000 C.3     1  UNL1        0.0058
     13 C           3.9245    1.8926    0.0000 C.3     1  UNL1        0.0095
     14 C           2.0000    0.0914    0.0000 C.2     1  UNL1       -0.0992
     15 C           4.9245    1.8926    0.0000 C.2     1  UNL1        0.1337
     16 H           5.0268   -1.5428    0.0000 H       1  UNL1        0.0312
     17 H           2.6379   -0.6733    0.0000 H       1  UNL1        0.0349
     18 H           2.5540   -1.3334    0.0000 H       1  UNL1        0.0276
     19 H           2.9232   -2.1294    0.0000 H       1  UNL1        0.0276
     20 H           5.4002   -1.2200    0.0000 H       1  UNL1        0.0268
     21 H           5.9675   -0.7440    0.0000 H       1  UNL1        0.0268
     22 H           3.1604   -2.6214    0.0000 H       1  UNL1        0.0235
     23 H           3.5326   -3.4154    0.0000 H       1  UNL1        0.0235
     24 H           4.3265   -3.0432    0.0000 H       1  UNL1        0.0235
     25 H           4.8131   -2.8150    0.0000 H       1  UNL1        0.0235
     26 H           5.6070   -2.4429    0.0000 H       1  UNL1        0.0235
     27 H           5.2348   -1.6490    0.0000 H       1  UNL1        0.0235
     28 H           6.2897   -0.1860    0.0000 H       1  UNL1        0.0269
     29 H           6.4182    0.5433    0.0000 H       1  UNL1        0.0269
     30 H           2.9129    1.8191    0.0000 H       1  UNL1        0.0314
     31 H           2.5426    1.1778    0.0000 H       1  UNL1        0.0314
     32 H           6.3064    1.1778    0.0000 H       1  UNL1        0.0342
     33 H           5.9361    1.8191    0.0000 H       1  UNL1        0.0342
     34 H           4.1023    2.4866    0.0000 H       1  UNL1        0.0345
     35 H           3.4065    2.2333    0.0000 H       1  UNL1        0.0345
     36 H           1.6015    0.5663    0.0000 H       1  UNL1        0.0534
     37 H           1.7880   -0.4912    0.0000 H       1  UNL1        0.0534
@<TRIPOS>BOND
     1     1    15    2
     2     2     3    1
     3     2     5    1
     4     2     7    1
     5     2     8    1
     6     3     4    1
     7     3     6    1
     8     3    16    1
     9     4     5    1
    10     4     9    1
    11     4    17    1
    12     5    18    1
    13     5    19    1
    14     6    10    1
    15     6    20    1
    16     6    21    1
    17     7    22    1
    18     7    23    1
    19     7    24    1
    20     8    25    1
    21     8    26    1
    22     8    27    1
    23     9    11    1
    24     9    14    2
    25    10    12    1
    26    10    28    1
    27    10    29    1
    28    11    13    1
    29    11    30    1
    30    11    31    1
    31    12    15    1
    32    12    32    1
    33    12    33    1
    34    13    15    1
    35    13    34    1
    36    13    35    1
    37    14    36    1
    38    14    37    1
