@<TRIPOS>MOLECULE
IMPHY003488
 24 24 0 0 0
SMALL
GASTEIGER

@<TRIPOS>ATOM
      1 O           3.3660   -2.7694    0.0000 O.2     1  UNL1       -0.4703
      2 O           2.0000    0.2694    0.0000 O.2     1  UNL1       -0.2916
      3 C           3.7320    0.2694    0.0000 C.3     1  UNL1        0.0290
      4 C           3.7320    1.2694    0.0000 C.2     1  UNL1       -0.0779
      5 C           4.5981    1.7694    0.0000 C.2     1  UNL1       -0.0792
      6 C           2.8660   -0.2306    0.0000 C.2     1  UNL1        0.1699
      7 C           2.8660   -1.2306    0.0000 C.ar    1  UNL1        0.0553
      8 C           4.5981    2.7694    0.0000 C.3     1  UNL1       -0.0440
      9 C           5.4641    1.2694    0.0000 C.3     1  UNL1       -0.0440
     10 C           2.0570   -1.8184    0.0000 C.ar    1  UNL1       -0.0134
     11 C           3.6750   -1.8184    0.0000 C.ar    1  UNL1        0.1021
     12 C           2.3660   -2.7694    0.0000 C.ar    1  UNL1        0.0924
     13 H           3.9441   -0.3132    0.0000 H       1  UNL1        0.0388
     14 H           4.3426    0.3771    0.0000 H       1  UNL1        0.0388
     15 H           3.1951    1.5794    0.0000 H       1  UNL1        0.0576
     16 H           5.2181    2.7694    0.0000 H       1  UNL1        0.0274
     17 H           4.5981    3.3894    0.0000 H       1  UNL1        0.0274
     18 H           3.9781    2.7694    0.0000 H       1  UNL1        0.0274
     19 H           5.1541    0.7325    0.0000 H       1  UNL1        0.0274
     20 H           6.0010    0.9594    0.0000 H       1  UNL1        0.0274
     21 H           5.7741    1.8064    0.0000 H       1  UNL1        0.0274
     22 H           1.4674   -1.6268    0.0000 H       1  UNL1        0.0656
     23 H           4.2647   -1.6268    0.0000 H       1  UNL1        0.1036
     24 H           2.0016   -3.2710    0.0000 H       1  UNL1        0.1029
@<TRIPOS>BOND
     1     1    11   ar
     2     1    12   ar
     3     2     6    2
     4     3     4    1
     5     3     6    1
     6     3    13    1
     7     3    14    1
     8     4     5    2
     9     4    15    1
    10     5     8    1
    11     5     9    1
    12     6     7    1
    13     7    10   ar
    14     7    11   ar
    15     8    16    1
    16     8    17    1
    17     8    18    1
    18     9    19    1
    19     9    20    1
    20     9    21    1
    21    10    12   ar
    22    10    22    1
    23    11    23    1
    24    12    24    1
