@<TRIPOS>MOLECULE
IMPHY000125
 18 17 0 0 0
SMALL
GASTEIGER

@<TRIPOS>ATOM
      1 N           6.8671    0.2500    0.0000 N.3     1  UNL1       -0.3300
      2 N           2.5369   -0.2500    0.0000 N.3     1  UNL1       -0.3300
      3 C           4.2690   -0.2500    0.0000 C.3     1  UNL1       -0.0395
      4 C           5.1350    0.2500    0.0000 C.3     1  UNL1       -0.0395
      5 C           6.0010   -0.2500    0.0000 C.3     1  UNL1       -0.0069
      6 C           3.4030    0.2500    0.0000 C.3     1  UNL1       -0.0069
      7 H           3.8705   -0.7249    0.0000 H       1  UNL1        0.0278
      8 H           4.6675   -0.7249    0.0000 H       1  UNL1        0.0278
      9 H           5.5335    0.7249    0.0000 H       1  UNL1        0.0278
     10 H           4.7365    0.7249    0.0000 H       1  UNL1        0.0278
     11 H           5.6025   -0.7249    0.0000 H       1  UNL1        0.0422
     12 H           6.3996   -0.7249    0.0000 H       1  UNL1        0.0422
     13 H           3.8015    0.7249    0.0000 H       1  UNL1        0.0422
     14 H           3.0044    0.7249    0.0000 H       1  UNL1        0.0422
     15 H           7.4040   -0.0600    0.0000 H       1  UNL1        0.1182
     16 H           6.8671    0.8700    0.0000 H       1  UNL1        0.1182
     17 H           2.0000    0.0600    0.0000 H       1  UNL1        0.1182
     18 H           2.5369   -0.8700    0.0000 H       1  UNL1        0.1182
@<TRIPOS>BOND
     1     1     5    1
     2     1    15    1
     3     1    16    1
     4     2     6    1
     5     2    17    1
     6     2    18    1
     7     3     4    1
     8     3     6    1
     9     3     7    1
    10     3     8    1
    11     4     5    1
    12     4     9    1
    13     4    10    1
    14     5    11    1
    15     5    12    1
    16     6    13    1
    17     6    14    1
