@<TRIPOS>MOLECULE
IMPHY008294
 52 54 0 0 0
SMALL
GASTEIGER

@<TRIPOS>ATOM
      1 O           6.3580   -0.4293    0.0000 O.2     1  UNL1       -0.4469
      2 O           4.5981   -1.3946    0.0000 O.3     1  UNL1       -0.4884
      3 O           8.1282    1.6296    0.0000 O.3     1  UNL1       -0.4883
      4 O           2.8660   -0.3946    0.0000 O.3     1  UNL1       -0.4883
      5 O           2.8660    1.6054    0.0000 O.3     1  UNL1       -0.4884
      6 O           4.5981    2.6054    0.0000 O.3     1  UNL1       -0.5027
      7 O           7.2564   -1.9154    0.0000 O.3     1  UNL1       -0.4944
      8 O           6.3465    2.6400    0.0000 O.2     1  UNL1       -0.2830
      9 O          10.7282    0.0712    0.0000 O.3     1  UNL1       -0.4951
     10 C           5.4641    1.1054    0.0000 C.ar    1  UNL1        0.1165
     11 C           5.4641    0.1054    0.0000 C.ar    1  UNL1        0.1884
     12 C           7.2641    0.0846    0.0000 C.ar    1  UNL1        0.1846
     13 C           4.5981   -0.3946    0.0000 C.ar    1  UNL1        0.2088
     14 C           7.2641    1.1262    0.0000 C.ar    1  UNL1        0.2108
     15 C           6.3580    1.6401    0.0000 C.ar    1  UNL1        0.2383
     16 C           4.5981    1.6054    0.0000 C.ar    1  UNL1        0.1772
     17 C           8.1282   -0.4188    0.0000 C.ar    1  UNL1        0.0661
     18 C           3.7320    0.1054    0.0000 C.ar    1  UNL1        0.2110
     19 C           3.7320    1.1054    0.0000 C.ar    1  UNL1        0.2080
     20 C           8.1244   -1.4188    0.0000 C.ar    1  UNL1        0.1311
     21 C           8.9962    0.0779    0.0000 C.ar    1  UNL1       -0.0056
     22 C           9.8602   -0.4254    0.0000 C.ar    1  UNL1        0.1210
     23 C           8.9884   -1.9221    0.0000 C.ar    1  UNL1       -0.0158
     24 C           9.8564   -1.4254    0.0000 C.ar    1  UNL1       -0.0165
     25 C           3.7320   -1.8946    0.0000 C.3     1  UNL1        0.0791
     26 C           8.1244    2.6295    0.0000 C.3     1  UNL1        0.0791
     27 C           2.0000    0.1054    0.0000 C.3     1  UNL1        0.0791
     28 C           2.0000    1.1054    0.0000 C.3     1  UNL1        0.0791
     29 C           7.2526   -2.9154    0.0000 C.3     1  UNL1        0.0788
     30 C          11.5923   -0.4321    0.0000 C.3     1  UNL1        0.0788
     31 H           8.9985    0.6979    0.0000 H       1  UNL1        0.0662
     32 H           8.9860   -2.5421    0.0000 H       1  UNL1        0.0655
     33 H          10.3921   -1.7375    0.0000 H       1  UNL1        0.0655
     34 H           4.0611    2.9154    0.0000 H       1  UNL1        0.2923
     35 H           3.4220   -1.3577    0.0000 H       1  UNL1        0.0660
     36 H           3.1951   -2.2046    0.0000 H       1  UNL1        0.0660
     37 H           4.0420   -2.4315    0.0000 H       1  UNL1        0.0660
     38 H           8.7443    2.6319    0.0000 H       1  UNL1        0.0660
     39 H           8.1220    3.2495    0.0000 H       1  UNL1        0.0660
     40 H           7.5044    2.6272    0.0000 H       1  UNL1        0.0660
     41 H           2.3100    0.6423    0.0000 H       1  UNL1        0.0660
     42 H           1.4631    0.4154    0.0000 H       1  UNL1        0.0660
     43 H           1.6900   -0.4315    0.0000 H       1  UNL1        0.0660
     44 H           1.6900    1.6423    0.0000 H       1  UNL1        0.0660
     45 H           1.4631    0.7954    0.0000 H       1  UNL1        0.0660
     46 H           2.3100    0.5685    0.0000 H       1  UNL1        0.0660
     47 H           6.6326   -2.9130    0.0000 H       1  UNL1        0.0660
     48 H           7.2502   -3.5354    0.0000 H       1  UNL1        0.0660
     49 H           7.8725   -2.9178    0.0000 H       1  UNL1        0.0660
     50 H          11.2802   -0.9678    0.0000 H       1  UNL1        0.0660
     51 H          12.1280   -0.7442    0.0000 H       1  UNL1        0.0660
     52 H          11.9043    0.1036    0.0000 H       1  UNL1        0.0660
@<TRIPOS>BOND
     1     1    11   ar
     2     1    12   ar
     3     2    13    1
     4     2    25    1
     5     3    14    1
     6     3    26    1
     7     4    18    1
     8     4    27    1
     9     5    19    1
    10     5    28    1
    11     6    16    1
    12     6    34    1
    13     7    20    1
    14     7    29    1
    15     8    15    2
    16     9    22    1
    17     9    30    1
    18    10    11   ar
    19    10    15   ar
    20    10    16   ar
    21    11    13   ar
    22    12    14   ar
    23    12    17    1
    24    13    18   ar
    25    14    15   ar
    26    16    19   ar
    27    17    20   ar
    28    17    21   ar
    29    18    19   ar
    30    20    23   ar
    31    21    22   ar
    32    21    31    1
    33    22    24   ar
    34    23    24   ar
    35    23    32    1
    36    24    33    1
    37    25    35    1
    38    25    36    1
    39    25    37    1
    40    26    38    1
    41    26    39    1
    42    26    40    1
    43    27    41    1
    44    27    42    1
    45    27    43    1
    46    28    44    1
    47    28    45    1
    48    28    46    1
    49    29    47    1
    50    29    48    1
    51    29    49    1
    52    30    50    1
    53    30    51    1
    54    30    52    1
