@<TRIPOS>MOLECULE
IMPHY012869
 48 51 0 0 0
SMALL
GASTEIGER

@<TRIPOS>ATOM
      1 O           3.7702   -0.4653    0.0000 O.2     1  UNL1       -0.4212
      2 O           7.2901    0.4653    0.0000 O.2     1  UNL1       -0.4212
      3 O           7.2622   -0.5000    0.0000 O.3     1  UNL1       -0.5060
      4 O           3.7981    0.5000    0.0000 O.3     1  UNL1       -0.5060
      5 O           3.7817   -3.5346    0.0000 O.3     1  UNL1       -0.4942
      6 O           7.2785    3.5346    0.0000 O.3     1  UNL1       -0.4942
      7 O           2.0000   -0.4758    0.0000 O.2     1  UNL1       -0.2451
      8 O           9.0602    0.4758    0.0000 O.2     1  UNL1       -0.2451
      9 C           5.5301   -0.5000    0.0000 C.ar    1  UNL1        0.0736
     10 C           5.5301    0.5000    0.0000 C.ar    1  UNL1        0.0736
     11 C           4.6641   -1.0000    0.0000 C.ar    1  UNL1        0.1542
     12 C           6.3961    1.0000    0.0000 C.ar    1  UNL1        0.1542
     13 C           4.6641   -2.0000    0.0000 C.ar    1  UNL1        0.0629
     14 C           6.3961    2.0000    0.0000 C.ar    1  UNL1        0.0629
     15 C           5.5301   -2.5000    0.0000 C.ar    1  UNL1       -0.0328
     16 C           5.5301    2.5000    0.0000 C.ar    1  UNL1       -0.0328
     17 C           6.3961   -1.0000    0.0000 C.ar    1  UNL1        0.1286
     18 C           4.6641    1.0000    0.0000 C.ar    1  UNL1        0.1286
     19 C           6.3961   -2.0000    0.0000 C.ar    1  UNL1       -0.0157
     20 C           4.6641    2.0000    0.0000 C.ar    1  UNL1       -0.0157
     21 C           3.7702   -2.5347    0.0000 C.ar    1  UNL1        0.1378
     22 C           7.2901    2.5347    0.0000 C.ar    1  UNL1        0.1378
     23 C           5.5301   -3.5000    0.0000 C.3     1  UNL1       -0.0388
     24 C           5.5301    3.5000    0.0000 C.3     1  UNL1       -0.0388
     25 C           2.8641   -2.0208    0.0000 C.ar    1  UNL1        0.0652
     26 C           8.1962    2.0208    0.0000 C.ar    1  UNL1        0.0652
     27 C           2.8641   -0.9792    0.0000 C.ar    1  UNL1        0.3408
     28 C           8.1962    0.9792    0.0000 C.ar    1  UNL1        0.3408
     29 C           2.9215   -4.0446    0.0000 C.3     1  UNL1        0.0788
     30 C           8.1387    4.0446    0.0000 C.3     1  UNL1        0.0788
     31 H           6.9331   -2.3100    0.0000 H       1  UNL1        0.0657
     32 H           4.1272    2.3100    0.0000 H       1  UNL1        0.0657
     33 H           4.9101   -3.5000    0.0000 H       1  UNL1        0.0278
     34 H           5.5301   -4.1200    0.0000 H       1  UNL1        0.0278
     35 H           6.1501   -3.5000    0.0000 H       1  UNL1        0.0278
     36 H           6.1501    3.5000    0.0000 H       1  UNL1        0.0278
     37 H           5.5301    4.1200    0.0000 H       1  UNL1        0.0278
     38 H           4.9101    3.5000    0.0000 H       1  UNL1        0.0278
     39 H           2.3284   -2.3329    0.0000 H       1  UNL1        0.0726
     40 H           8.7319    2.3329    0.0000 H       1  UNL1        0.0726
     41 H           7.7991   -0.8100    0.0000 H       1  UNL1        0.2922
     42 H           3.2611    0.8100    0.0000 H       1  UNL1        0.2922
     43 H           2.6054   -3.5113    0.0000 H       1  UNL1        0.0660
     44 H           2.3882   -4.3608    0.0000 H       1  UNL1        0.0660
     45 H           3.2377   -4.5779    0.0000 H       1  UNL1        0.0660
     46 H           8.4549    3.5113    0.0000 H       1  UNL1        0.0660
     47 H           8.6720    4.3608    0.0000 H       1  UNL1        0.0660
     48 H           7.8225    4.5779    0.0000 H       1  UNL1        0.0660
@<TRIPOS>BOND
     1     1    11   ar
     2     1    27   ar
     3     2    12   ar
     4     2    28   ar
     5     3    17    1
     6     3    41    1
     7     4    18    1
     8     4    42    1
     9     5    21    1
    10     5    29    1
    11     6    22    1
    12     6    30    1
    13     7    27    2
    14     8    28    2
    15     9    10    1
    16     9    11   ar
    17     9    17   ar
    18    10    12   ar
    19    10    18   ar
    20    11    13   ar
    21    12    14   ar
    22    13    15   ar
    23    13    21   ar
    24    14    16   ar
    25    14    22   ar
    26    15    19   ar
    27    15    23    1
    28    16    20   ar
    29    16    24    1
    30    17    19   ar
    31    18    20   ar
    32    19    31    1
    33    20    32    1
    34    21    25   ar
    35    22    26   ar
    36    23    33    1
    37    23    34    1
    38    23    35    1
    39    24    36    1
    40    24    37    1
    41    24    38    1
    42    25    27   ar
    43    25    39    1
    44    26    28   ar
    45    26    40    1
    46    29    43    1
    47    29    44    1
    48    29    45    1
    49    30    46    1
    50    30    47    1
    51    30    48    1
