@<TRIPOS>MOLECULE
IMPHY017755
 26 25 0 0 0
SMALL
GASTEIGER

@<TRIPOS>ATOM
      1 O           5.4641    0.7500    0.0000 O.3     1  UNL1       -0.4618
      2 O           6.3301   -0.7500    0.0000 O.2     1  UNL1       -0.2512
      3 C           2.8660    0.2500    0.0000 C.3     1  UNL1       -0.0434
      4 C           3.7320    0.7500    0.0000 C.3     1  UNL1       -0.0136
      5 C           4.5981    0.2500    0.0000 C.3     1  UNL1        0.1005
      6 C           2.0000    0.7500    0.0000 C.3     1  UNL1       -0.0625
      7 C           2.8660   -0.7500    0.0000 C.3     1  UNL1       -0.0625
      8 C           4.5981   -0.7500    0.0000 C.3     1  UNL1       -0.0277
      9 C           6.3301    0.2500    0.0000 C.2     1  UNL1        0.3042
     10 C           7.1962    0.7500    0.0000 C.3     1  UNL1        0.0332
     11 H           2.8660    0.8700    0.0000 H       1  UNL1        0.0297
     12 H           4.1306    1.2250    0.0000 H       1  UNL1        0.0303
     13 H           3.3335    1.2250    0.0000 H       1  UNL1        0.0303
     14 H           4.5981    1.1000    0.0000 H       1  UNL1        0.0731
     15 H           2.3100    1.2869    0.0000 H       1  UNL1        0.0232
     16 H           1.4631    1.0600    0.0000 H       1  UNL1        0.0232
     17 H           1.6900    0.2131    0.0000 H       1  UNL1        0.0232
     18 H           2.2460   -0.7500    0.0000 H       1  UNL1        0.0232
     19 H           2.8660   -1.3700    0.0000 H       1  UNL1        0.0232
     20 H           3.4860   -0.7500    0.0000 H       1  UNL1        0.0232
     21 H           3.9781   -0.7500    0.0000 H       1  UNL1        0.0265
     22 H           4.5981   -1.3700    0.0000 H       1  UNL1        0.0265
     23 H           5.2181   -0.7500    0.0000 H       1  UNL1        0.0265
     24 H           7.5062    0.2131    0.0000 H       1  UNL1        0.0342
     25 H           7.7331    1.0600    0.0000 H       1  UNL1        0.0342
     26 H           6.8862    1.2869    0.0000 H       1  UNL1        0.0342
@<TRIPOS>BOND
     1     1     5    1
     2     1     9    1
     3     2     9    2
     4     3     4    1
     5     3     6    1
     6     3     7    1
     7     3    11    1
     8     4     5    1
     9     4    12    1
    10     4    13    1
    11     5     8    1
    12     5    14    1
    13     6    15    1
    14     6    16    1
    15     6    17    1
    16     7    18    1
    17     7    19    1
    18     7    20    1
    19     8    21    1
    20     8    22    1
    21     8    23    1
    22     9    10    1
    23    10    24    1
    24    10    25    1
    25    10    26    1
