@<TRIPOS>MOLECULE
IMPHY015100
 107 106 0 0 0
SMALL
GASTEIGER

@<TRIPOS>ATOM
      1 O          21.0526    0.7500    0.0000 O.3     1  UNL1       -0.4646
      2 O          20.1865   -0.7500    0.0000 O.2     1  UNL1       -0.2509
      3 C          11.5263    0.2500    0.0000 C.3     1  UNL1       -0.0531
      4 C          10.6603    0.7500    0.0000 C.3     1  UNL1       -0.0531
      5 C          12.3923    0.7500    0.0000 C.3     1  UNL1       -0.0531
      6 C           9.7942    0.2500    0.0000 C.3     1  UNL1       -0.0531
      7 C          13.2583    0.2500    0.0000 C.3     1  UNL1       -0.0531
      8 C           8.9282    0.7500    0.0000 C.3     1  UNL1       -0.0531
      9 C          14.1244    0.7500    0.0000 C.3     1  UNL1       -0.0531
     10 C           8.0622    0.2500    0.0000 C.3     1  UNL1       -0.0531
     11 C          14.9904    0.2500    0.0000 C.3     1  UNL1       -0.0531
     12 C           7.1962    0.7500    0.0000 C.3     1  UNL1       -0.0531
     13 C          15.8564    0.7500    0.0000 C.3     1  UNL1       -0.0531
     14 C           6.3301    0.2500    0.0000 C.3     1  UNL1       -0.0531
     15 C          16.7224    0.2500    0.0000 C.3     1  UNL1       -0.0530
     16 C           5.4641    0.7500    0.0000 C.3     1  UNL1       -0.0531
     17 C          26.2487    0.7500    0.0000 C.3     1  UNL1       -0.0531
     18 C          27.1147    0.2500    0.0000 C.3     1  UNL1       -0.0531
     19 C          17.5885    0.7500    0.0000 C.3     1  UNL1       -0.0526
     20 C          25.3827    0.2500    0.0000 C.3     1  UNL1       -0.0531
     21 C          27.9808    0.7500    0.0000 C.3     1  UNL1       -0.0531
     22 C           4.5981    0.2500    0.0000 C.3     1  UNL1       -0.0531
     23 C          24.5167    0.7500    0.0000 C.3     1  UNL1       -0.0530
     24 C          28.8468    0.2500    0.0000 C.3     1  UNL1       -0.0531
     25 C          18.4545    0.2500    0.0000 C.3     1  UNL1       -0.0430
     26 C          23.6506    0.2500    0.0000 C.3     1  UNL1       -0.0500
     27 C          29.7128    0.7500    0.0000 C.3     1  UNL1       -0.0531
     28 C           3.7320    0.7500    0.0000 C.3     1  UNL1       -0.0533
     29 C          22.7846    0.7500    0.0000 C.3     1  UNL1       -0.0185
     30 C          30.5788    0.2500    0.0000 C.3     1  UNL1       -0.0533
     31 C          19.3205    0.7500    0.0000 C.3     1  UNL1        0.0449
     32 C           2.8660    0.2500    0.0000 C.3     1  UNL1       -0.0559
     33 C          21.9186    0.2500    0.0000 C.3     1  UNL1        0.0925
     34 C          31.4449    0.7500    0.0000 C.3     1  UNL1       -0.0559
     35 C          20.1865    0.2500    0.0000 C.2     1  UNL1        0.3071
     36 C           2.0000    0.7500    0.0000 C.3     1  UNL1       -0.0653
     37 C          32.3109    0.2500    0.0000 C.3     1  UNL1       -0.0653
     38 H          11.1278   -0.2249    0.0000 H       1  UNL1        0.0265
     39 H          11.9248   -0.2249    0.0000 H       1  UNL1        0.0265
     40 H          11.0588    1.2250    0.0000 H       1  UNL1        0.0265
     41 H          10.2617    1.2250    0.0000 H       1  UNL1        0.0265
     42 H          12.7908    1.2250    0.0000 H       1  UNL1        0.0265
     43 H          11.9938    1.2250    0.0000 H       1  UNL1        0.0265
     44 H           9.3957   -0.2249    0.0000 H       1  UNL1        0.0265
     45 H          10.1928   -0.2249    0.0000 H       1  UNL1        0.0265
     46 H          12.8598   -0.2249    0.0000 H       1  UNL1        0.0265
     47 H          13.6569   -0.2249    0.0000 H       1  UNL1        0.0265
     48 H           9.3267    1.2250    0.0000 H       1  UNL1        0.0265
     49 H           8.5297    1.2250    0.0000 H       1  UNL1        0.0265
     50 H          14.5229    1.2250    0.0000 H       1  UNL1        0.0265
     51 H          13.7258    1.2250    0.0000 H       1  UNL1        0.0265
     52 H           7.6636   -0.2249    0.0000 H       1  UNL1        0.0265
     53 H           8.4607   -0.2249    0.0000 H       1  UNL1        0.0265
     54 H          14.5919   -0.2249    0.0000 H       1  UNL1        0.0265
     55 H          15.3889   -0.2249    0.0000 H       1  UNL1        0.0265
     56 H           7.5947    1.2250    0.0000 H       1  UNL1        0.0265
     57 H           6.7976    1.2250    0.0000 H       1  UNL1        0.0265
     58 H          16.2549    1.2250    0.0000 H       1  UNL1        0.0265
     59 H          15.4579    1.2250    0.0000 H       1  UNL1        0.0265
     60 H           5.9316   -0.2249    0.0000 H       1  UNL1        0.0265
     61 H           6.7287   -0.2249    0.0000 H       1  UNL1        0.0265
     62 H          16.3239   -0.2249    0.0000 H       1  UNL1        0.0265
     63 H          17.1210   -0.2249    0.0000 H       1  UNL1        0.0265
     64 H           5.8626    1.2250    0.0000 H       1  UNL1        0.0265
     65 H           5.0656    1.2250    0.0000 H       1  UNL1        0.0265
     66 H          26.6472    1.2250    0.0000 H       1  UNL1        0.0265
     67 H          25.8502    1.2250    0.0000 H       1  UNL1        0.0265
     68 H          26.7162   -0.2249    0.0000 H       1  UNL1        0.0265
     69 H          27.5133   -0.2249    0.0000 H       1  UNL1        0.0265
     70 H          17.9870    1.2250    0.0000 H       1  UNL1        0.0265
     71 H          17.1899    1.2250    0.0000 H       1  UNL1        0.0265
     72 H          24.9842   -0.2249    0.0000 H       1  UNL1        0.0265
     73 H          25.7812   -0.2249    0.0000 H       1  UNL1        0.0265
     74 H          28.3793    1.2250    0.0000 H       1  UNL1        0.0265
     75 H          27.5822    1.2250    0.0000 H       1  UNL1        0.0265
     76 H           4.1996   -0.2249    0.0000 H       1  UNL1        0.0265
     77 H           4.9966   -0.2249    0.0000 H       1  UNL1        0.0265
     78 H          24.9152    1.2250    0.0000 H       1  UNL1        0.0265
     79 H          24.1181    1.2250    0.0000 H       1  UNL1        0.0265
     80 H          28.4483   -0.2249    0.0000 H       1  UNL1        0.0265
     81 H          29.2453   -0.2249    0.0000 H       1  UNL1        0.0265
     82 H          18.0560   -0.2249    0.0000 H       1  UNL1        0.0270
     83 H          18.8530   -0.2249    0.0000 H       1  UNL1        0.0270
     84 H          23.2521   -0.2249    0.0000 H       1  UNL1        0.0266
     85 H          24.0492   -0.2249    0.0000 H       1  UNL1        0.0266
     86 H          30.1113    1.2250    0.0000 H       1  UNL1        0.0265
     87 H          29.3143    1.2250    0.0000 H       1  UNL1        0.0265
     88 H           4.1306    1.2250    0.0000 H       1  UNL1        0.0265
     89 H           3.3335    1.2250    0.0000 H       1  UNL1        0.0265
     90 H          23.1831    1.2250    0.0000 H       1  UNL1        0.0298
     91 H          22.3861    1.2250    0.0000 H       1  UNL1        0.0298
     92 H          30.1803   -0.2249    0.0000 H       1  UNL1        0.0265
     93 H          30.9774   -0.2249    0.0000 H       1  UNL1        0.0265
     94 H          19.7190    1.2250    0.0000 H       1  UNL1        0.0377
     95 H          18.9220    1.2250    0.0000 H       1  UNL1        0.0377
     96 H           2.4675   -0.2249    0.0000 H       1  UNL1        0.0263
     97 H           3.2646   -0.2249    0.0000 H       1  UNL1        0.0263
     98 H          21.5201   -0.2249    0.0000 H       1  UNL1        0.0697
     99 H          22.3171   -0.2249    0.0000 H       1  UNL1        0.0697
    100 H          31.8434    1.2250    0.0000 H       1  UNL1        0.0263
    101 H          31.0463    1.2250    0.0000 H       1  UNL1        0.0263
    102 H           2.3100    1.2869    0.0000 H       1  UNL1        0.0230
    103 H           1.4631    1.0600    0.0000 H       1  UNL1        0.0230
    104 H           1.6900    0.2131    0.0000 H       1  UNL1        0.0230
    105 H          32.0009   -0.2869    0.0000 H       1  UNL1        0.0230
    106 H          32.8478   -0.0600    0.0000 H       1  UNL1        0.0230
    107 H          32.6209    0.7869    0.0000 H       1  UNL1        0.0230
@<TRIPOS>BOND
     1     1    33    1
     2     1    35    1
     3     2    35    2
     4     3     4    1
     5     3     5    1
     6     3    38    1
     7     3    39    1
     8     4     6    1
     9     4    40    1
    10     4    41    1
    11     5     7    1
    12     5    42    1
    13     5    43    1
    14     6     8    1
    15     6    44    1
    16     6    45    1
    17     7     9    1
    18     7    46    1
    19     7    47    1
    20     8    10    1
    21     8    48    1
    22     8    49    1
    23     9    11    1
    24     9    50    1
    25     9    51    1
    26    10    12    1
    27    10    52    1
    28    10    53    1
    29    11    13    1
    30    11    54    1
    31    11    55    1
    32    12    14    1
    33    12    56    1
    34    12    57    1
    35    13    15    1
    36    13    58    1
    37    13    59    1
    38    14    16    1
    39    14    60    1
    40    14    61    1
    41    15    19    1
    42    15    62    1
    43    15    63    1
    44    16    22    1
    45    16    64    1
    46    16    65    1
    47    17    18    1
    48    17    20    1
    49    17    66    1
    50    17    67    1
    51    18    21    1
    52    18    68    1
    53    18    69    1
    54    19    25    1
    55    19    70    1
    56    19    71    1
    57    20    23    1
    58    20    72    1
    59    20    73    1
    60    21    24    1
    61    21    74    1
    62    21    75    1
    63    22    28    1
    64    22    76    1
    65    22    77    1
    66    23    26    1
    67    23    78    1
    68    23    79    1
    69    24    27    1
    70    24    80    1
    71    24    81    1
    72    25    31    1
    73    25    82    1
    74    25    83    1
    75    26    29    1
    76    26    84    1
    77    26    85    1
    78    27    30    1
    79    27    86    1
    80    27    87    1
    81    28    32    1
    82    28    88    1
    83    28    89    1
    84    29    33    1
    85    29    90    1
    86    29    91    1
    87    30    34    1
    88    30    92    1
    89    30    93    1
    90    31    35    1
    91    31    94    1
    92    31    95    1
    93    32    36    1
    94    32    96    1
    95    32    97    1
    96    33    98    1
    97    33    99    1
    98    34    37    1
    99    34   100    1
   100    34   101    1
   101    36   102    1
   102    36   103    1
   103    36   104    1
   104    37   105    1
   105    37   106    1
   106    37   107    1
