@<TRIPOS>MOLECULE
IMPHY011873
 40 41 0 0 0
SMALL
GASTEIGER

@<TRIPOS>ATOM
      1 O           4.7539   -0.3366    0.0000 O.3     1  UNL1       -0.3650
      2 C           5.0131   -1.3029    0.0000 C.3     1  UNL1        0.0935
      3 C           5.7202   -0.5958    0.0000 C.3     1  UNL1        0.0889
      4 C           5.7202    0.4042    0.0000 C.3     1  UNL1       -0.0153
      5 C           4.0131   -1.3029    0.0000 C.3     1  UNL1       -0.0181
      6 C           4.9558    1.0291    0.0000 C.3     1  UNL1       -0.0144
      7 C           4.3060   -2.0100    0.0000 C.3     1  UNL1       -0.0333
      8 C           3.3060   -2.0100    0.0000 C.3     1  UNL1       -0.0318
      9 C           5.7386    1.6512    0.0000 C.3     1  UNL1       -0.0563
     10 C           4.7615    2.0100    0.0000 C.3     1  UNL1       -0.0563
     11 C           4.0897    0.5291    0.0000 C.2     1  UNL1       -0.0819
     12 C           2.5989   -1.3029    0.0000 C.2     1  UNL1       -0.0846
     13 C           3.2237    1.0291    0.0000 C.2     1  UNL1       -0.0834
     14 C           2.8577   -0.3370    0.0000 C.2     1  UNL1       -0.0728
     15 C           2.3577    0.5291    0.0000 C.3     1  UNL1       -0.0138
     16 C           3.8340   -0.5534    0.0000 C.3     1  UNL1       -0.0435
     17 H           6.5055   -0.9211    0.0000 H       1  UNL1        0.0625
     18 H           6.3241    0.2638    0.0000 H       1  UNL1        0.0299
     19 H           5.9937    0.9606    0.0000 H       1  UNL1        0.0299
     20 H           4.1736   -0.7040    0.0000 H       1  UNL1        0.0297
     21 H           3.4762   -0.9929    0.0000 H       1  UNL1        0.0297
     22 H           3.8676   -1.5716    0.0000 H       1  UNL1        0.0258
     23 H           3.8676   -2.4484    0.0000 H       1  UNL1        0.0258
     24 H           4.7444   -2.4484    0.0000 H       1  UNL1        0.0258
     25 H           2.8676   -2.4484    0.0000 H       1  UNL1        0.0308
     26 H           3.7444   -2.4484    0.0000 H       1  UNL1        0.0308
     27 H           5.3697    2.1304    0.0000 H       1  UNL1        0.0238
     28 H           4.6410    2.6182    0.0000 H       1  UNL1        0.0238
     29 H           4.1533    1.8896    0.0000 H       1  UNL1        0.0238
     30 H           6.1244    1.1658    0.0000 H       1  UNL1        0.0238
     31 H           6.2240    2.0370    0.0000 H       1  UNL1        0.0238
     32 H           5.3529    2.1366    0.0000 H       1  UNL1        0.0238
     33 H           4.1975   -0.0815    0.0000 H       1  UNL1        0.0574
     34 H           2.0000   -1.4634    0.0000 H       1  UNL1        0.0572
     35 H           3.2237    1.6491    0.0000 H       1  UNL1        0.0572
     36 H           2.0477    1.0660    0.0000 H       1  UNL1        0.0352
     37 H           1.8208    0.2191    0.0000 H       1  UNL1        0.0352
     38 H           3.6998   -1.1587    0.0000 H       1  UNL1        0.0274
     39 H           4.4393   -0.6876    0.0000 H       1  UNL1        0.0274
     40 H           3.9682    0.0519    0.0000 H       1  UNL1        0.0274
@<TRIPOS>BOND
     1     1     2    1
     2     1     3    1
     3     2     3    1
     4     2     5    1
     5     2     7    1
     6     3     4    1
     7     3    17    1
     8     4     6    1
     9     4    18    1
    10     4    19    1
    11     5     8    1
    12     5    20    1
    13     5    21    1
    14     6     9    1
    15     6    10    1
    16     6    11    1
    17     7    22    1
    18     7    23    1
    19     7    24    1
    20     8    12    1
    21     8    25    1
    22     8    26    1
    23     9    30    1
    24     9    31    1
    25     9    32    1
    26    10    27    1
    27    10    28    1
    28    10    29    1
    29    11    13    2
    30    11    33    1
    31    12    14    2
    32    12    34    1
    33    13    15    1
    34    13    35    1
    35    14    15    1
    36    14    16    1
    37    15    36    1
    38    15    37    1
    39    16    38    1
    40    16    39    1
    41    16    40    1
