@<TRIPOS>MOLECULE
IMPHY013190
 48 50 0 0 0
SMALL
GASTEIGER

@<TRIPOS>ATOM
      1 O           5.8301    0.7679    0.0000 O.3     1  UNL1       -0.3796
      2 O           4.5981   -0.0981    0.0000 O.3     1  UNL1       -0.3847
      3 O           4.5981   -2.0981    0.0000 O.3     1  UNL1       -0.4510
      4 O           8.0622   -0.0981    0.0000 O.3     1  UNL1       -0.3847
      5 O           6.3301    1.6340    0.0000 O.3     1  UNL1       -0.4581
      6 O           5.4641   -3.5981    0.0000 O.2     1  UNL1       -0.2449
      7 O           7.8301    2.5000    0.0000 O.2     1  UNL1       -0.2450
      8 C           6.3301   -0.0981    0.0000 C.3     1  UNL1        0.1584
      9 C           5.4641   -0.5981    0.0000 C.3     1  UNL1        0.1302
     10 C           7.1962   -0.5981    0.0000 C.3     1  UNL1        0.1079
     11 C           5.4641   -1.5981    0.0000 C.3     1  UNL1        0.1503
     12 C           6.8301    0.7679    0.0000 C.3     1  UNL1        0.1268
     13 C           7.1962   -1.5981    0.0000 C.2     1  UNL1       -0.0534
     14 C           6.3301   -2.0981    0.0000 C.2     1  UNL1       -0.0428
     15 C           4.5981   -3.0981    0.0000 C.2     1  UNL1        0.3398
     16 C           6.8301    2.5000    0.0000 C.2     1  UNL1        0.3393
     17 C           3.7320   -3.5981    0.0000 C.ar    1  UNL1        0.0590
     18 C           6.3301    3.3660    0.0000 C.ar    1  UNL1        0.0590
     19 C           2.8660   -3.0981    0.0000 C.ar    1  UNL1       -0.0478
     20 C           3.7320   -4.5981    0.0000 C.ar    1  UNL1       -0.0478
     21 C           6.8301    4.2320    0.0000 C.ar    1  UNL1       -0.0478
     22 C           5.3301    3.3660    0.0000 C.ar    1  UNL1       -0.0478
     23 C           2.0000   -3.5981    0.0000 C.ar    1  UNL1       -0.0610
     24 C           2.8660   -5.0981    0.0000 C.ar    1  UNL1       -0.0610
     25 C           6.3301    5.0981    0.0000 C.ar    1  UNL1       -0.0610
     26 C           4.8301    4.2320    0.0000 C.ar    1  UNL1       -0.0610
     27 C           2.0000   -4.5981    0.0000 C.ar    1  UNL1       -0.0617
     28 C           5.3301    5.0981    0.0000 C.ar    1  UNL1       -0.0617
     29 H           5.4641    0.0219    0.0000 H       1  UNL1        0.0665
     30 H           7.7331   -0.9081    0.0000 H       1  UNL1        0.0669
     31 H           5.4641   -2.2181    0.0000 H       1  UNL1        0.0807
     32 H           7.3051    0.3694    0.0000 H       1  UNL1        0.0728
     33 H           7.3051    1.1665    0.0000 H       1  UNL1        0.0728
     34 H           7.7331   -1.9081    0.0000 H       1  UNL1        0.0596
     35 H           6.3301   -2.7181    0.0000 H       1  UNL1        0.0607
     36 H           5.2101    0.7679    0.0000 H       1  UNL1        0.2106
     37 H           4.0611   -0.4081    0.0000 H       1  UNL1        0.2101
     38 H           8.5991   -0.4081    0.0000 H       1  UNL1        0.2103
     39 H           2.8660   -2.4781    0.0000 H       1  UNL1        0.0626
     40 H           4.2690   -4.9081    0.0000 H       1  UNL1        0.0626
     41 H           7.4501    4.2320    0.0000 H       1  UNL1        0.0626
     42 H           5.0201    2.8291    0.0000 H       1  UNL1        0.0626
     43 H           1.4631   -3.2881    0.0000 H       1  UNL1        0.0618
     44 H           2.8660   -5.7181    0.0000 H       1  UNL1        0.0618
     45 H           6.6401    5.6350    0.0000 H       1  UNL1        0.0618
     46 H           4.2101    4.2320    0.0000 H       1  UNL1        0.0618
     47 H           1.4631   -4.9081    0.0000 H       1  UNL1        0.0618
     48 H           5.0201    5.6350    0.0000 H       1  UNL1        0.0618
@<TRIPOS>BOND
     1     1     8    1
     2     1    36    1
     3     2     9    1
     4     2    37    1
     5     3    11    1
     6     3    15    1
     7     4    10    1
     8     4    38    1
     9     5    12    1
    10     5    16    1
    11     6    15    2
    12     7    16    2
    13     8     9    1
    14     8    10    1
    15     8    12    1
    16     9    11    1
    17     9    29    1
    18    10    13    1
    19    10    30    1
    20    11    14    1
    21    11    31    1
    22    12    32    1
    23    12    33    1
    24    13    14    2
    25    13    34    1
    26    14    35    1
    27    15    17    1
    28    16    18    1
    29    17    19   ar
    30    17    20   ar
    31    18    21   ar
    32    18    22   ar
    33    19    23   ar
    34    19    39    1
    35    20    24   ar
    36    20    40    1
    37    21    25   ar
    38    21    41    1
    39    22    26   ar
    40    22    42    1
    41    23    27   ar
    42    23    43    1
    43    24    27   ar
    44    24    44    1
    45    25    28   ar
    46    25    45    1
    47    26    28   ar
    48    26    46    1
    49    27    47    1
    50    28    48    1
