@<TRIPOS>MOLECULE
IMPHY014527
 41 45 0 0 0
SMALL
GASTEIGER

@<TRIPOS>ATOM
      1 O           3.7670    1.8625    0.0000 O.3     1  UNL1       -0.3757
      2 O           6.2596   -2.4348    0.0000 O.3     1  UNL1       -0.3856
      3 O           8.8411    0.5260    0.0000 O.2     1  UNL1       -0.2706
      4 O           2.6079    0.4034    0.0000 O.3     1  UNL1       -0.4526
      5 O           2.6079   -1.2731    0.0000 O.3     1  UNL1       -0.4526
      6 N           7.1256    0.0652    0.0000 N.am    1  UNL1       -0.2813
      7 C           6.2596    0.5652    0.0000 C.3     1  UNL1        0.0913
      8 C           5.2440    0.7674    0.0000 C.3     1  UNL1        0.0070
      9 C           5.3935    0.0652    0.0000 C.ar    1  UNL1       -0.0101
     10 C           6.4688    1.5370    0.0000 C.2     1  UNL1       -0.0147
     11 C           7.1256   -0.9348    0.0000 C.3     1  UNL1        0.0463
     12 C           6.2596   -1.4348    0.0000 C.3     1  UNL1        0.0963
     13 C           5.3935   -0.9348    0.0000 C.ar    1  UNL1       -0.0084
     14 C           4.7664    1.8288    0.0000 C.3     1  UNL1        0.0793
     15 C           7.8626    0.7322    0.0000 C.2     1  UNL1        0.2408
     16 C           7.4575    1.6400    0.0000 C.2     1  UNL1        0.0059
     17 C           6.1666    2.5274    0.0000 C.2     1  UNL1       -0.0576
     18 C           4.4996    0.5998    0.0000 C.ar    1  UNL1       -0.0103
     19 C           5.3086    2.6748    0.0000 C.2     1  UNL1       -0.0552
     20 C           4.4996   -1.4695    0.0000 C.ar    1  UNL1       -0.0101
     21 C           3.5935    0.0860    0.0000 C.ar    1  UNL1        0.1666
     22 C           3.5935   -0.9557    0.0000 C.ar    1  UNL1        0.1666
     23 C           2.0000   -0.4348    0.0000 C.3     1  UNL1        0.2332
     24 C           3.2964    2.7448    0.0000 C.3     1  UNL1        0.0372
     25 H           4.6385    0.6343    0.0000 H       1  UNL1        0.0321
     26 H           5.2502    0.1475    0.0000 H       1  UNL1        0.0321
     27 H           7.3376   -1.5174    0.0000 H       1  UNL1        0.0494
     28 H           7.7362   -0.8272    0.0000 H       1  UNL1        0.0494
     29 H           6.7965   -1.7448    0.0000 H       1  UNL1        0.0659
     30 H           4.4781    2.3777    0.0000 H       1  UNL1        0.0641
     31 H           7.7675    2.1770    0.0000 H       1  UNL1        0.0673
     32 H           6.5765    2.9925    0.0000 H       1  UNL1        0.0619
     33 H           4.5068    1.2198    0.0000 H       1  UNL1        0.0659
     34 H           5.0585    3.2421    0.0000 H       1  UNL1        0.0598
     35 H           4.5068   -2.0895    0.0000 H       1  UNL1        0.0659
     36 H           6.7965   -2.7448    0.0000 H       1  UNL1        0.2103
     37 H           1.5391   -0.0201    0.0000 H       1  UNL1        0.1166
     38 H           1.5391   -0.8496    0.0000 H       1  UNL1        0.1166
     39 H           3.8434    3.0366    0.0000 H       1  UNL1        0.0524
     40 H           3.0046    3.2919    0.0000 H       1  UNL1        0.0524
     41 H           2.7493    2.4531    0.0000 H       1  UNL1        0.0524
@<TRIPOS>BOND
     1    14     1    1
     2     1    24    1
     3    12     2    1
     4     2    36    1
     5     3    15    2
     6     4    21    1
     7     4    23    1
     8     5    22    1
     9     5    23    1
    10     6     7    1
    11     6    11    1
    12     6    15   am
    13     7     8    1
    14     7     9    1
    15     7    10    1
    16     8    14    1
    17     8    25    1
    18     8    26    1
    19     9    13   ar
    20     9    18   ar
    21    10    16    2
    22    10    17    1
    23    11    12    1
    24    11    27    1
    25    11    28    1
    26    12    13    1
    27    12    29    1
    28    13    20   ar
    29    14    19    1
    30    14    30    1
    31    15    16    1
    32    16    31    1
    33    17    19    2
    34    17    32    1
    35    18    21   ar
    36    18    33    1
    37    19    34    1
    38    20    22   ar
    39    20    35    1
    40    21    22   ar
    41    23    37    1
    42    23    38    1
    43    24    39    1
    44    24    40    1
    45    24    41    1
