@<TRIPOS>MOLECULE
IMPHY016360
 23 23 0 0 0
SMALL
GASTEIGER

@<TRIPOS>ATOM
      1 C           2.7818   -1.1235    0.0000 C.3     1  UNL1       -0.0488
      2 C           2.0000   -0.5000    0.0000 C.3     1  UNL1       -0.0493
      3 C           3.7568   -0.9010    0.0000 C.3     1  UNL1       -0.0280
      4 C           2.0000    0.5000    0.0000 C.3     1  UNL1       -0.0345
      5 C           4.1906   -0.0000    0.0000 C.2     1  UNL1       -0.0518
      6 C           2.7818    1.1235    0.0000 C.2     1  UNL1       -0.0838
      7 C           3.7568    0.9010    0.0000 C.2     1  UNL1       -0.0628
      8 C           5.1906   -0.0000    0.0000 C.2     1  UNL1       -0.0839
      9 C           5.6906   -0.8660    0.0000 C.3     1  UNL1       -0.0463
     10 H           2.2971   -1.5100    0.0000 H       1  UNL1        0.0268
     11 H           3.0508   -1.6821    0.0000 H       1  UNL1        0.0268
     12 H           1.3955   -0.3620    0.0000 H       1  UNL1        0.0268
     13 H           1.7310   -1.0586    0.0000 H       1  UNL1        0.0268
     14 H           3.7568   -1.5210    0.0000 H       1  UNL1        0.0313
     15 H           4.3612   -1.0389    0.0000 H       1  UNL1        0.0313
     16 H           1.7310    1.0586    0.0000 H       1  UNL1        0.0307
     17 H           1.3955    0.3620    0.0000 H       1  UNL1        0.0307
     18 H           2.6439    1.7280    0.0000 H       1  UNL1        0.0572
     19 H           4.1433    1.3857    0.0000 H       1  UNL1        0.0617
     20 H           5.5006    0.5369    0.0000 H       1  UNL1        0.0572
     21 H           5.1537   -1.1760    0.0000 H       1  UNL1        0.0272
     22 H           6.0006   -1.4030    0.0000 H       1  UNL1        0.0272
     23 H           6.2276   -0.5560    0.0000 H       1  UNL1        0.0272
@<TRIPOS>BOND
     1     1     2    1
     2     1     3    1
     3     1    10    1
     4     1    11    1
     5     2     4    1
     6     2    12    1
     7     2    13    1
     8     3     5    1
     9     3    14    1
    10     3    15    1
    11     4     6    1
    12     4    16    1
    13     4    17    1
    14     5     7    1
    15     5     8    2
    16     6     7    2
    17     6    18    1
    18     7    19    1
    19     8     9    1
    20     8    20    1
    21     9    21    1
    22     9    22    1
    23     9    23    1
