@<TRIPOS>MOLECULE
IMPHY011108
 56 60 0 0 0
SMALL
GASTEIGER

@<TRIPOS>ATOM
      1 O          10.4645    1.0660    0.0000 O.3     1  UNL1       -0.4788
      2 O          10.4722   -0.9340    0.0000 O.3     1  UNL1       -0.4768
      3 O           6.0682    0.5765    0.0000 O.3     1  UNL1       -0.4828
      4 O          12.1927    2.0726    0.0000 O.3     1  UNL1       -0.3912
      5 O           6.0682    3.5765    0.0000 O.2     1  UNL1       -0.2917
      6 O          13.0799   -3.4240    0.0000 O.3     1  UNL1       -0.4914
      7 O           4.3198    3.6111    0.0000 O.3     1  UNL1       -0.5058
      8 O          14.8081   -2.4173    0.0000 O.3     1  UNL1       -0.5033
      9 O           2.5381    0.5524    0.0000 O.3     1  UNL1       -0.5065
     10 C          11.3363   -0.4307    0.0000 C.3     1  UNL1        0.1642
     11 C          11.3324    0.5693    0.0000 C.3     1  UNL1        0.1639
     12 C           6.9343    1.0765    0.0000 C.3     1  UNL1        0.1323
     13 C           7.8003    0.5765    0.0000 C.ar    1  UNL1       -0.0033
     14 C           9.6004    0.5626    0.0000 C.ar    1  UNL1        0.1630
     15 C           9.6042   -0.4373    0.0000 C.ar    1  UNL1        0.1630
     16 C           6.9343    2.0765    0.0000 C.3     1  UNL1        0.0520
     17 C          12.2042   -0.9273    0.0000 C.ar    1  UNL1       -0.0000
     18 C           8.7044    1.0939    0.0000 C.ar    1  UNL1       -0.0096
     19 C          12.1965    1.0727    0.0000 C.3     1  UNL1        0.0850
     20 C           7.8043   -0.4651    0.0000 C.ar    1  UNL1       -0.0514
     21 C           8.7124   -0.9754    0.0000 C.ar    1  UNL1       -0.0159
     22 C           6.0682    2.5765    0.0000 C.2     1  UNL1        0.1740
     23 C           5.2022    2.0765    0.0000 C.ar    1  UNL1        0.1007
     24 C           5.2022    1.0765    0.0000 C.ar    1  UNL1        0.1389
     25 C          12.2081   -1.9273    0.0000 C.ar    1  UNL1       -0.0095
     26 C          13.0683   -0.4240    0.0000 C.ar    1  UNL1       -0.0513
     27 C           4.3083    2.6112    0.0000 C.ar    1  UNL1        0.1343
     28 C           4.3083    0.5419    0.0000 C.ar    1  UNL1        0.0225
     29 C          13.0760   -2.4240    0.0000 C.ar    1  UNL1        0.1616
     30 C          13.9363   -0.9207    0.0000 C.ar    1  UNL1       -0.0161
     31 C          13.9401   -1.9206    0.0000 C.ar    1  UNL1        0.1585
     32 C           3.4022    1.0557    0.0000 C.ar    1  UNL1        0.1238
     33 C           3.4022    2.0973    0.0000 C.ar    1  UNL1        0.0222
     34 C          12.2158   -3.9273    0.0000 C.3     1  UNL1        0.0790
     35 H          11.3387   -1.0507    0.0000 H       1  UNL1        0.0823
     36 H          11.3300    1.1893    0.0000 H       1  UNL1        0.0798
     37 H           6.9343    0.4565    0.0000 H       1  UNL1        0.0789
     38 H           7.5449    1.9689    0.0000 H       1  UNL1        0.0385
     39 H           7.1463    2.6591    0.0000 H       1  UNL1        0.0385
     40 H           8.7092    1.7138    0.0000 H       1  UNL1        0.0659
     41 H          12.4108    0.4909    0.0000 H       1  UNL1        0.0595
     42 H          12.8067    1.1827    0.0000 H       1  UNL1        0.0595
     43 H           7.2698   -0.7792    0.0000 H       1  UNL1        0.0623
     44 H           8.7219   -1.5954    0.0000 H       1  UNL1        0.0655
     45 H          11.6723   -2.2394    0.0000 H       1  UNL1        0.0659
     46 H          13.0659    0.1960    0.0000 H       1  UNL1        0.0623
     47 H           4.3154   -0.0781    0.0000 H       1  UNL1        0.0691
     48 H          14.4720   -0.6086    0.0000 H       1  UNL1        0.0655
     49 H          12.7284    2.3847    0.0000 H       1  UNL1        0.2096
     50 H           2.8665    2.4094    0.0000 H       1  UNL1        0.0691
     51 H           3.7865    3.9273    0.0000 H       1  UNL1        0.2922
     52 H          15.3438   -2.1052    0.0000 H       1  UNL1        0.2923
     53 H           2.0000    0.8603    0.0000 H       1  UNL1        0.2921
     54 H          11.9037   -3.3916    0.0000 H       1  UNL1        0.0660
     55 H          11.6800   -4.2394    0.0000 H       1  UNL1        0.0660
     56 H          12.5278   -4.4630    0.0000 H       1  UNL1        0.0660
@<TRIPOS>BOND
     1     1    11    1
     2     1    14    1
     3     2    10    1
     4     2    15    1
     5     3    12    1
     6     3    24    1
     7     4    19    1
     8     4    49    1
     9     5    22    2
    10     6    29    1
    11     6    34    1
    12     7    27    1
    13     7    51    1
    14     8    31    1
    15     8    52    1
    16     9    32    1
    17     9    53    1
    18    10    11    1
    19    10    17    1
    20    10    35    1
    21    11    19    1
    22    11    36    1
    23    12    13    1
    24    12    16    1
    25    12    37    1
    26    13    18   ar
    27    13    20   ar
    28    14    15   ar
    29    14    18   ar
    30    15    21   ar
    31    16    22    1
    32    16    38    1
    33    16    39    1
    34    17    25   ar
    35    17    26   ar
    36    18    40    1
    37    19    41    1
    38    19    42    1
    39    20    21   ar
    40    20    43    1
    41    21    44    1
    42    22    23    1
    43    23    24   ar
    44    23    27   ar
    45    24    28   ar
    46    25    29   ar
    47    25    45    1
    48    26    30   ar
    49    26    46    1
    50    27    33   ar
    51    28    32   ar
    52    28    47    1
    53    29    31   ar
    54    30    31   ar
    55    30    48    1
    56    32    33   ar
    57    33    50    1
    58    34    54    1
    59    34    55    1
    60    34    56    1
