@<TRIPOS>MOLECULE
IMPHY012417
 31 32 0 0 0
SMALL
GASTEIGER

@<TRIPOS>ATOM
      1 O           7.1962   -0.2500    0.0000 O.3     1  UNL1       -0.4553
      2 O           5.4641   -1.2500    0.0000 O.3     1  UNL1       -0.3852
      3 O           4.5981    1.2500    0.0000 O.3     1  UNL1       -0.3845
      4 O           8.9282   -0.2500    0.0000 O.2     1  UNL1       -0.2456
      5 C           5.4641   -0.2500    0.0000 C.3     1  UNL1        0.1222
      6 C           6.3301    0.2500    0.0000 C.3     1  UNL1        0.1352
      7 C           4.5981    0.2500    0.0000 C.3     1  UNL1        0.1095
      8 C           6.3301    1.2500    0.0000 C.3     1  UNL1        0.0056
      9 C           3.7320   -0.2500    0.0000 C.ar    1  UNL1       -0.0166
     10 C           7.1962    1.7500    0.0000 C.2     1  UNL1       -0.0737
     11 C           8.0622    0.2500    0.0000 C.2     1  UNL1        0.3320
     12 C           2.8660    0.2500    0.0000 C.ar    1  UNL1       -0.0560
     13 C           3.7320   -1.2500    0.0000 C.ar    1  UNL1       -0.0560
     14 C           8.0622    1.2500    0.0000 C.2     1  UNL1        0.0187
     15 C           2.0000   -0.2500    0.0000 C.ar    1  UNL1       -0.0614
     16 C           2.8660   -1.7500    0.0000 C.ar    1  UNL1       -0.0614
     17 C           2.0000   -1.2500    0.0000 C.ar    1  UNL1       -0.0617
     18 H           6.0010   -0.5600    0.0000 H       1  UNL1        0.0660
     19 H           7.0662    0.6750    0.0000 H       1  UNL1        0.0764
     20 H           5.1350    0.5600    0.0000 H       1  UNL1        0.0671
     21 H           6.1181    1.8326    0.0000 H       1  UNL1        0.0344
     22 H           5.7196    1.1423    0.0000 H       1  UNL1        0.0344
     23 H           7.1962    2.3700    0.0000 H       1  UNL1        0.0575
     24 H           6.0010   -1.5600    0.0000 H       1  UNL1        0.2101
     25 H           2.8660    0.8700    0.0000 H       1  UNL1        0.0621
     26 H           4.2690   -1.5600    0.0000 H       1  UNL1        0.0621
     27 H           8.5991    1.5600    0.0000 H       1  UNL1        0.0686
     28 H           4.0611    1.5600    0.0000 H       1  UNL1        0.2103
     29 H           1.4631    0.0600    0.0000 H       1  UNL1        0.0618
     30 H           2.8660   -2.3700    0.0000 H       1  UNL1        0.0618
     31 H           1.4631   -1.5600    0.0000 H       1  UNL1        0.0618
@<TRIPOS>BOND
     1     1     6    1
     2     1    11    1
     3     5     2    1
     4     2    24    1
     5     7     3    1
     6     3    28    1
     7     4    11    2
     8     5     6    1
     9     5     7    1
    10     5    18    1
    11     6     8    1
    12     6    19    1
    13     7     9    1
    14     7    20    1
    15     8    10    1
    16     8    21    1
    17     8    22    1
    18     9    12   ar
    19     9    13   ar
    20    10    14    2
    21    10    23    1
    22    11    14    1
    23    12    15   ar
    24    12    25    1
    25    13    16   ar
    26    13    26    1
    27    14    27    1
    28    15    17   ar
    29    15    29    1
    30    16    17   ar
    31    16    30    1
    32    17    31    1
