@<TRIPOS>MOLECULE
IMPHY017905
 30 30 0 0 0
SMALL
GASTEIGER

@<TRIPOS>ATOM
      1 O           3.7567   -1.4590    0.0000 O.3     1  UNL1       -0.4646
      2 O           2.2565   -2.0186    0.0000 O.2     1  UNL1       -0.2509
      3 C           4.2567    2.0186    0.0000 C.3     1  UNL1       -0.0531
      4 C           3.2567    2.0186    0.0000 C.3     1  UNL1       -0.0530
      5 C           5.0979    1.4779    0.0000 C.3     1  UNL1       -0.0530
      6 C           2.4154    1.4779    0.0000 C.3     1  UNL1       -0.0526
      7 C           5.5133    0.5683    0.0000 C.3     1  UNL1       -0.0500
      8 C           2.0000    0.5683    0.0000 C.3     1  UNL1       -0.0430
      9 C           5.3710   -0.4215    0.0000 C.3     1  UNL1       -0.0185
     10 C           2.1423   -0.4215    0.0000 C.3     1  UNL1        0.0449
     11 C           4.7162   -1.1773    0.0000 C.3     1  UNL1        0.0925
     12 C           2.7972   -1.1773    0.0000 C.2     1  UNL1        0.3071
     13 H           4.7440    2.4018    0.0000 H       1  UNL1        0.0265
     14 H           4.0820    1.4237    0.0000 H       1  UNL1        0.0265
     15 H           3.4594    2.6044    0.0000 H       1  UNL1        0.0265
     16 H           3.4313    1.4237    0.0000 H       1  UNL1        0.0265
     17 H           5.7151    1.5368    0.0000 H       1  UNL1        0.0265
     18 H           4.6294    1.0719    0.0000 H       1  UNL1        0.0265
     19 H           2.2692    2.0804    0.0000 H       1  UNL1        0.0265
     20 H           2.8840    1.0719    0.0000 H       1  UNL1        0.0265
     21 H           6.0644    0.2842    0.0000 H       1  UNL1        0.0266
     22 H           4.8996    0.4800    0.0000 H       1  UNL1        0.0266
     23 H           1.5513    0.9961    0.0000 H       1  UNL1        0.0270
     24 H           2.6137    0.4800    0.0000 H       1  UNL1        0.0270
     25 H           5.6810   -0.9585    0.0000 H       1  UNL1        0.0298
     26 H           4.8070   -0.1640    0.0000 H       1  UNL1        0.0298
     27 H           1.5335   -0.3042    0.0000 H       1  UNL1        0.0377
     28 H           2.7063   -0.1640    0.0000 H       1  UNL1        0.0377
     29 H           4.6867   -1.7966    0.0000 H       1  UNL1        0.0697
     30 H           4.3810   -0.6557    0.0000 H       1  UNL1        0.0697
@<TRIPOS>BOND
     1     1    11    1
     2     1    12    1
     3     2    12    2
     4     3     4    1
     5     3     5    1
     6     3    13    1
     7     3    14    1
     8     4     6    1
     9     4    15    1
    10     4    16    1
    11     5     7    1
    12     5    17    1
    13     5    18    1
    14     6     8    1
    15     6    19    1
    16     6    20    1
    17     7     9    1
    18     7    21    1
    19     7    22    1
    20     8    10    1
    21     8    23    1
    22     8    24    1
    23     9    11    1
    24     9    25    1
    25     9    26    1
    26    10    12    1
    27    10    27    1
    28    10    28    1
    29    11    29    1
    30    11    30    1
