@<TRIPOS>MOLECULE
IMPHY006135
 51 55 0 0 0
SMALL
GASTEIGER

@<TRIPOS>ATOM
      1 O           4.7950    1.2296    0.0000 O.3     1  UNL1       -0.3914
      2 O           2.0000   -2.3228    0.0000 O.2     1  UNL1       -0.2879
      3 N           8.1862    2.3686    0.0000 N.2     1  UNL1       -0.2919
      4 C           7.3931    0.7295    0.0000 C.3     1  UNL1        0.0158
      5 C           7.3931   -0.2705    0.0000 C.3     1  UNL1       -0.0269
      6 C           6.5271   -0.7705    0.0000 C.3     1  UNL1       -0.0308
      7 C           8.3393    1.0343    0.0000 C.3     1  UNL1       -0.0081
      8 C           5.6610   -0.2705    0.0000 C.3     1  UNL1        0.0007
      9 C           6.5271    1.2296    0.0000 C.3     1  UNL1       -0.0154
     10 C           8.3393   -0.5752    0.0000 C.3     1  UNL1       -0.0488
     11 C           5.6610    0.7295    0.0000 C.3     1  UNL1        0.0602
     12 C           8.9229    0.2295    0.0000 C.3     1  UNL1       -0.0472
     13 C           4.7510   -0.7773    0.0000 C.3     1  UNL1        0.0131
     14 C           6.5431   -1.8120    0.0000 C.3     1  UNL1       -0.0458
     15 C           8.8334    1.8901    0.0000 C.3     1  UNL1        0.0513
     16 C           7.2949    1.7128    0.0000 C.2     1  UNL1        0.0068
     17 C           5.6451   -2.3397    0.0000 C.3     1  UNL1       -0.0302
     18 C           4.7430   -1.8189    0.0000 C.2     1  UNL1       -0.0559
     19 C           4.7587    0.2227    0.0000 C.3     1  UNL1       -0.0520
     20 C           3.8242   -0.2132    0.0000 C.2     1  UNL1       -0.0701
     21 C           9.7847    2.1983    0.0000 C.3     1  UNL1       -0.0424
     22 C           3.8076   -2.3686    0.0000 C.2     1  UNL1       -0.0149
     23 C           2.8763   -0.7412    0.0000 C.2     1  UNL1       -0.0180
     24 C           2.8680   -1.8261    0.0000 C.2     1  UNL1        0.1787
     25 H           7.4830   -1.1157    0.0000 H       1  UNL1        0.0312
     26 H           7.2664   -1.1898    0.0000 H       1  UNL1        0.0308
     27 H           9.1882    1.0784    0.0000 H       1  UNL1        0.0330
     28 H           6.3972    0.1545    0.0000 H       1  UNL1        0.0340
     29 H           6.9256    1.7045    0.0000 H       1  UNL1        0.0299
     30 H           6.1285    1.7045    0.0000 H       1  UNL1        0.0299
     31 H           8.0883   -1.1421    0.0000 H       1  UNL1        0.0268
     32 H           8.8767   -0.8844    0.0000 H       1  UNL1        0.0268
     33 H           5.6610    1.3496    0.0000 H       1  UNL1        0.0597
     34 H           9.3838   -0.1852    0.0000 H       1  UNL1        0.0269
     35 H           9.3838    0.6443    0.0000 H       1  UNL1        0.0269
     36 H           6.7612   -2.3924    0.0000 H       1  UNL1        0.0271
     37 H           7.1523   -1.6965    0.0000 H       1  UNL1        0.0271
     38 H           8.9332    2.5020    0.0000 H       1  UNL1        0.0544
     39 H           6.7284    1.9648    0.0000 H       1  UNL1        0.0784
     40 H           5.2478   -2.8157    0.0000 H       1  UNL1        0.0310
     41 H           6.0460   -2.8126    0.0000 H       1  UNL1        0.0310
     42 H           5.3787    0.2179    0.0000 H       1  UNL1        0.0241
     43 H           4.7635    0.8427    0.0000 H       1  UNL1        0.0241
     44 H           4.1388    0.2274    0.0000 H       1  UNL1        0.0241
     45 H           3.8361    0.4067    0.0000 H       1  UNL1        0.0582
     46 H           9.9758    1.6084    0.0000 H       1  UNL1        0.0250
     47 H          10.3745    2.3894    0.0000 H       1  UNL1        0.0250
     48 H           9.5936    2.7881    0.0000 H       1  UNL1        0.0250
     49 H           4.7950    1.8496    0.0000 H       1  UNL1        0.2098
     50 H           3.8100   -2.9886    0.0000 H       1  UNL1        0.0655
     51 H           2.3430   -0.4250    0.0000 H       1  UNL1        0.0653
@<TRIPOS>BOND
     1    11     1    1
     2     1    49    1
     3     2    24    2
     4     3    15    1
     5     3    16    2
     6     4     5    1
     7     4     7    1
     8     4     9    1
     9     4    16    1
    10     5     6    1
    11     5    10    1
    12     5    25    1
    13     6     8    1
    14     6    14    1
    15     6    26    1
    16     7    12    1
    17     7    15    1
    18     7    27    1
    19     8    11    1
    20     8    13    1
    21     8    28    1
    22     9    11    1
    23     9    29    1
    24     9    30    1
    25    10    12    1
    26    10    31    1
    27    10    32    1
    28    11    33    1
    29    12    34    1
    30    12    35    1
    31    13    18    1
    32    13    19    1
    33    13    20    1
    34    14    17    1
    35    14    36    1
    36    14    37    1
    37    15    21    1
    38    15    38    1
    39    16    39    1
    40    17    18    1
    41    17    40    1
    42    17    41    1
    43    18    22    2
    44    19    42    1
    45    19    43    1
    46    19    44    1
    47    20    23    2
    48    20    45    1
    49    21    46    1
    50    21    47    1
    51    21    48    1
    52    22    24    1
    53    22    50    1
    54    23    24    1
    55    23    51    1
