@<TRIPOS>MOLECULE
IMPHY004834
 63 69 0 0 0
SMALL
GASTEIGER

@<TRIPOS>ATOM
      1 O           8.8478    1.2168    0.0000 O.3     1  UNL1       -0.4466
      2 O           5.3830    1.3303    0.0000 O.3     1  UNL1       -0.4466
      3 O           7.4378   -1.9295    0.0000 O.3     1  UNL1       -0.4808
      4 O           8.5342   -4.4938    0.0000 O.3     1  UNL1       -0.3875
      5 O          11.0478   -1.6600    0.0000 O.3     1  UNL1       -0.5063
      6 O           6.4390   -1.8841    0.0000 O.3     1  UNL1       -0.5062
      7 O           2.9407   -1.3438    0.0000 O.3     1  UNL1       -0.5065
      8 O           5.7793    5.3917    0.0000 O.3     1  UNL1       -0.5068
      9 O           4.1550   -5.2111    0.0000 O.3     1  UNL1       -0.5068
     10 C           7.0734    0.5620    0.0000 C.3     1  UNL1        0.0305
     11 C           7.5512    2.5106    0.0000 C.3     1  UNL1        0.0408
     12 C           6.8146    1.5280    0.0000 C.3     1  UNL1        0.2810
     13 C           8.2944   -0.3036    0.0000 C.ar    1  UNL1        0.0444
     14 C           5.8017   -0.2326    0.0000 C.ar    1  UNL1        0.0439
     15 C           9.1235    0.2556    0.0000 C.ar    1  UNL1        0.1363
     16 C           8.3511   -1.3437    0.0000 C.ar    1  UNL1        0.1355
     17 C           9.2837   -1.8075    0.0000 C.ar    1  UNL1        0.0387
     18 C           5.0246    0.3967    0.0000 C.ar    1  UNL1        0.1363
     19 C           6.5558    2.4939    0.0000 C.ar    1  UNL1        0.0362
     20 C           9.3678   -2.8893    0.0000 C.3     1  UNL1        0.0092
     21 C           8.4683   -3.4960    0.0000 C.3     1  UNL1        0.1004
     22 C           7.4968   -3.0129    0.0000 C.3     1  UNL1        0.1512
     23 C          10.0666   -0.1866    0.0000 C.ar    1  UNL1        0.0225
     24 C          10.1473   -1.2251    0.0000 C.ar    1  UNL1        0.1271
     25 C           5.6547   -1.2638    0.0000 C.ar    1  UNL1        0.1276
     26 C           4.0465    0.0385    0.0000 C.ar    1  UNL1        0.0222
     27 C           6.6613   -3.5624    0.0000 C.ar    1  UNL1       -0.0046
     28 C           5.5898    2.7527    0.0000 C.ar    1  UNL1       -0.0478
     29 C           7.2629    3.2010    0.0000 C.ar    1  UNL1       -0.0478
     30 C           4.6851   -1.6446    0.0000 C.ar    1  UNL1        0.0218
     31 C           3.8756   -0.9890    0.0000 C.ar    1  UNL1        0.1238
     32 C           5.3310    3.7186    0.0000 C.ar    1  UNL1       -0.0197
     33 C           7.0041    4.1669    0.0000 C.ar    1  UNL1       -0.0197
     34 C           6.7195   -4.5607    0.0000 C.ar    1  UNL1       -0.0515
     35 C           5.7676   -3.1137    0.0000 C.ar    1  UNL1       -0.0515
     36 C           6.0381    4.4258    0.0000 C.ar    1  UNL1        0.1169
     37 C           5.8841   -5.1103    0.0000 C.ar    1  UNL1       -0.0198
     38 C           4.9322   -3.6633    0.0000 C.ar    1  UNL1       -0.0198
     39 C           4.9904   -4.6616    0.0000 C.ar    1  UNL1        0.1169
     40 H           7.2934   -0.2590    0.0000 H       1  UNL1        0.0404
     41 H           7.2334    3.0429    0.0000 H       1  UNL1        0.0353
     42 H           8.1644    2.6025    0.0000 H       1  UNL1        0.0353
     43 H           9.9686   -2.7362    0.0000 H       1  UNL1        0.0342
     44 H           9.6214   -3.4550    0.0000 H       1  UNL1        0.0342
     45 H           7.9523   -3.8397    0.0000 H       1  UNL1        0.0637
     46 H           6.9432   -2.7336    0.0000 H       1  UNL1        0.0811
     47 H          10.5766    0.1661    0.0000 H       1  UNL1        0.0691
     48 H           3.5692    0.4342    0.0000 H       1  UNL1        0.0691
     49 H           5.1514    2.3143    0.0000 H       1  UNL1        0.0624
     50 H           7.8618    3.0405    0.0000 H       1  UNL1        0.0624
     51 H           4.5905   -2.2573    0.0000 H       1  UNL1        0.0691
     52 H           9.0904   -4.7678    0.0000 H       1  UNL1        0.2100
     53 H           4.7322    3.8791    0.0000 H       1  UNL1        0.0654
     54 H           7.4425    4.6053    0.0000 H       1  UNL1        0.0654
     55 H          11.5604   -1.3113    0.0000 H       1  UNL1        0.2921
     56 H           7.2736   -4.8389    0.0000 H       1  UNL1        0.0623
     57 H           5.7316   -2.4947    0.0000 H       1  UNL1        0.0623
     58 H           6.3491   -2.4975    0.0000 H       1  UNL1        0.2921
     59 H           5.9202   -5.7293    0.0000 H       1  UNL1        0.0654
     60 H           4.3781   -3.3850    0.0000 H       1  UNL1        0.0654
     61 H           2.4604   -0.9518    0.0000 H       1  UNL1        0.2921
     62 H           6.2177    5.8301    0.0000 H       1  UNL1        0.2921
     63 H           4.1911   -5.8301    0.0000 H       1  UNL1        0.2921
@<TRIPOS>BOND
     1     1    12    1
     2     1    15    1
     3     2    12    1
     4     2    18    1
     5     3    16    1
     6     3    22    1
     7    21     4    1
     8     4    52    1
     9     5    24    1
    10     5    55    1
    11     6    25    1
    12     6    58    1
    13     7    31    1
    14     7    61    1
    15     8    36    1
    16     8    62    1
    17     9    39    1
    18     9    63    1
    19    10    11    1
    20    10    13    1
    21    10    14    1
    22    10    40    1
    23    11    12    1
    24    11    41    1
    25    11    42    1
    26    12    19    1
    27    13    15   ar
    28    13    16   ar
    29    14    18   ar
    30    14    25   ar
    31    15    23   ar
    32    16    17   ar
    33    17    20    1
    34    17    24   ar
    35    18    26   ar
    36    19    28   ar
    37    19    29   ar
    38    20    21    1
    39    20    43    1
    40    20    44    1
    41    21    22    1
    42    21    45    1
    43    22    27    1
    44    22    46    1
    45    23    24   ar
    46    23    47    1
    47    25    30   ar
    48    26    31   ar
    49    26    48    1
    50    27    34   ar
    51    27    35   ar
    52    28    32   ar
    53    28    49    1
    54    29    33   ar
    55    29    50    1
    56    30    31   ar
    57    30    51    1
    58    32    36   ar
    59    32    53    1
    60    33    36   ar
    61    33    54    1
    62    34    37   ar
    63    34    56    1
    64    35    38   ar
    65    35    57    1
    66    37    39   ar
    67    37    59    1
    68    38    39   ar
    69    38    60    1
