@<TRIPOS>MOLECULE
IMPHY004026
 44 48 0 0 0
SMALL
GASTEIGER

@<TRIPOS>ATOM
      1 O           7.6797    2.4797    0.0000 O.3     1  UNL1       -0.3947
      2 N           6.5117   -0.5041    0.0000 N.3     1  UNL1       -0.2865
      3 N           4.2558   -0.9382    0.0000 N.ar    1  UNL1       -0.3564
      4 C           6.5117    0.3642    0.0000 C.3     1  UNL1        0.0208
      5 C           6.5117   -2.2406    0.0000 C.3     1  UNL1       -0.0106
      6 C           7.2636    0.7984    0.0000 C.3     1  UNL1        0.0047
      7 C           5.7597   -0.9382    0.0000 C.3     1  UNL1        0.0520
      8 C           5.7597   -1.8065    0.0000 C.3     1  UNL1       -0.0249
      9 C           5.7597    0.7984    0.0000 C.3     1  UNL1       -0.0093
     10 C           7.2636   -0.9382    0.0000 C.3     1  UNL1        0.0212
     11 C           7.2636   -1.8065    0.0000 C.2     1  UNL1       -0.0562
     12 C           5.0078   -0.5041    0.0000 C.ar    1  UNL1        0.0377
     13 C           5.0078    0.3642    0.0000 C.ar    1  UNL1       -0.0161
     14 C           7.9570    1.5189    0.0000 C.3     1  UNL1        0.0490
     15 C           3.5039    0.3642    0.0000 C.ar    1  UNL1        0.0032
     16 C           8.1297   -2.3065    0.0000 C.2     1  UNL1       -0.0864
     17 C           3.5039   -0.5041    0.0000 C.ar    1  UNL1        0.0470
     18 C           2.7520    0.7984    0.0000 C.ar    1  UNL1       -0.0523
     19 C           8.9957   -1.8065    0.0000 C.3     1  UNL1       -0.0465
     20 C           2.7520   -0.9382    0.0000 C.ar    1  UNL1       -0.0378
     21 C           2.0000    0.3642    0.0000 C.ar    1  UNL1       -0.0611
     22 C           2.0000   -0.5041    0.0000 C.ar    1  UNL1       -0.0598
     23 H           6.5117    1.2142    0.0000 H       1  UNL1        0.0470
     24 H           6.5117   -3.0906    0.0000 H       1  UNL1        0.0350
     25 H           7.8655    0.6494    0.0000 H       1  UNL1        0.0344
     26 H           5.0902   -1.4618    0.0000 H       1  UNL1        0.0527
     27 H           5.1492   -1.6988    0.0000 H       1  UNL1        0.0290
     28 H           5.5477   -2.3891    0.0000 H       1  UNL1        0.0290
     29 H           6.1583    1.2733    0.0000 H       1  UNL1        0.0329
     30 H           5.3612    1.2733    0.0000 H       1  UNL1        0.0329
     31 H           7.8742   -1.0458    0.0000 H       1  UNL1        0.0473
     32 H           7.4757   -0.3556    0.0000 H       1  UNL1        0.0473
     33 H           8.3223    1.0180    0.0000 H       1  UNL1        0.0560
     34 H           8.5138    1.7917    0.0000 H       1  UNL1        0.0560
     35 H           4.2558   -1.5582    0.0000 H       1  UNL1        0.1656
     36 H           8.1297   -2.9265    0.0000 H       1  UNL1        0.0569
     37 H           8.1096    2.9265    0.0000 H       1  UNL1        0.2094
     38 H           2.7520    1.4184    0.0000 H       1  UNL1        0.0624
     39 H           9.3057   -2.3434    0.0000 H       1  UNL1        0.0272
     40 H           9.5326   -1.4964    0.0000 H       1  UNL1        0.0272
     41 H           8.6857   -1.2695    0.0000 H       1  UNL1        0.0272
     42 H           2.7520   -1.5582    0.0000 H       1  UNL1        0.0638
     43 H           1.4631    0.6742    0.0000 H       1  UNL1        0.0618
     44 H           1.4631   -0.8141    0.0000 H       1  UNL1        0.0618
@<TRIPOS>BOND
     1     1    14    1
     2     1    37    1
     3     2     4    1
     4     2     7    1
     5     2    10    1
     6     3    12   ar
     7     3    17   ar
     8     3    35    1
     9     4     6    1
    10     4     9    1
    11     4    23    1
    12     5     6    1
    13     5     8    1
    14     5    11    1
    15     5    24    1
    16     6    14    1
    17     6    25    1
    18     7     8    1
    19     7    12    1
    20     7    26    1
    21     8    27    1
    22     8    28    1
    23     9    13    1
    24     9    29    1
    25     9    30    1
    26    10    11    1
    27    10    31    1
    28    10    32    1
    29    11    16    2
    30    12    13   ar
    31    13    15   ar
    32    14    33    1
    33    14    34    1
    34    15    17   ar
    35    15    18   ar
    36    16    19    1
    37    16    36    1
    38    17    20   ar
    39    18    21   ar
    40    18    38    1
    41    19    39    1
    42    19    40    1
    43    19    41    1
    44    20    22   ar
    45    20    42    1
    46    21    22   ar
    47    21    43    1
    48    22    44    1
