@<TRIPOS>MOLECULE
IMPHY015599
 31 30 0 0 0
SMALL
GASTEIGER

@<TRIPOS>ATOM
      1 O           2.5369    1.0000    0.0000 O.3     1  UNL1       -0.3878
      2 C           6.0010    1.0000    0.0000 C.3     1  UNL1       -0.0530
      3 C           6.8671    0.5000    0.0000 C.3     1  UNL1       -0.0531
      4 C           5.1350    0.5000    0.0000 C.3     1  UNL1       -0.0504
      5 C           7.7331    1.0000    0.0000 C.3     1  UNL1       -0.0533
      6 C           4.2690    1.0000    0.0000 C.3     1  UNL1       -0.0233
      7 C           8.5991    0.5000    0.0000 C.3     1  UNL1       -0.0559
      8 C           3.4030    0.5000    0.0000 C.3     1  UNL1        0.0731
      9 C           9.4651    1.0000    0.0000 C.3     1  UNL1       -0.0653
     10 C           3.4030   -0.5000    0.0000 C.2     1  UNL1       -0.0630
     11 C           2.5369   -1.0000    0.0000 C.2     1  UNL1       -0.1002
     12 H           6.3996    1.4750    0.0000 H       1  UNL1        0.0265
     13 H           5.6025    1.4750    0.0000 H       1  UNL1        0.0265
     14 H           6.4685    0.0251    0.0000 H       1  UNL1        0.0265
     15 H           7.2656    0.0251    0.0000 H       1  UNL1        0.0265
     16 H           4.7365    0.0251    0.0000 H       1  UNL1        0.0266
     17 H           5.5335    0.0251    0.0000 H       1  UNL1        0.0266
     18 H           8.1316    1.4750    0.0000 H       1  UNL1        0.0265
     19 H           7.3346    1.4750    0.0000 H       1  UNL1        0.0265
     20 H           4.6675    1.4750    0.0000 H       1  UNL1        0.0293
     21 H           3.8705    1.4750    0.0000 H       1  UNL1        0.0293
     22 H           8.2006    0.0251    0.0000 H       1  UNL1        0.0263
     23 H           8.9976    0.0251    0.0000 H       1  UNL1        0.0263
     24 H           3.4030    1.1200    0.0000 H       1  UNL1        0.0637
     25 H           9.7751    0.4631    0.0000 H       1  UNL1        0.0230
     26 H          10.0021    1.3100    0.0000 H       1  UNL1        0.0230
     27 H           9.1551    1.5369    0.0000 H       1  UNL1        0.0230
     28 H           3.9399   -0.8100    0.0000 H       1  UNL1        0.0592
     29 H           2.0000    0.6900    0.0000 H       1  UNL1        0.2102
     30 H           2.0000   -0.6900    0.0000 H       1  UNL1        0.0533
     31 H           2.5369   -1.6200    0.0000 H       1  UNL1        0.0533
@<TRIPOS>BOND
     1     1     8    1
     2     1    29    1
     3     2     3    1
     4     2     4    1
     5     2    12    1
     6     2    13    1
     7     3     5    1
     8     3    14    1
     9     3    15    1
    10     4     6    1
    11     4    16    1
    12     4    17    1
    13     5     7    1
    14     5    18    1
    15     5    19    1
    16     6     8    1
    17     6    20    1
    18     6    21    1
    19     7     9    1
    20     7    22    1
    21     7    23    1
    22     8    10    1
    23     8    24    1
    24     9    25    1
    25     9    26    1
    26     9    27    1
    27    10    11    2
    28    10    28    1
    29    11    30    1
    30    11    31    1
