@<TRIPOS>MOLECULE
IMPHY003257
 22 23 0 0 0
SMALL
GASTEIGER

@<TRIPOS>ATOM
      1 O           5.5321   -0.7535    0.0000 O.3     1  UNL1       -0.4608
      2 O           4.6144   -2.2673    0.0000 O.2     1  UNL1       -0.2449
      3 N           2.0000   -0.7327    0.0000 N.ar    1  UNL1       -0.2618
      4 C           4.6260    0.8020    0.0000 C.3     1  UNL1        0.0082
      5 C           3.7320    0.2673    0.0000 C.ar    1  UNL1       -0.0202
      6 C           5.5321    0.2881    0.0000 C.3     1  UNL1        0.0968
      7 C           3.7320   -0.7327    0.0000 C.ar    1  UNL1        0.0809
      8 C           2.8660    0.7673    0.0000 C.ar    1  UNL1       -0.0034
      9 C           4.6260   -1.2674    0.0000 C.2     1  UNL1        0.3410
     10 C           2.8660   -1.2327    0.0000 C.ar    1  UNL1        0.0418
     11 C           2.0000    0.2673    0.0000 C.ar    1  UNL1        0.0350
     12 C           2.8660    1.7673    0.0000 C.2     1  UNL1       -0.0600
     13 C           2.0000    2.2673    0.0000 C.2     1  UNL1       -0.0981
     14 H           5.0196    1.2810    0.0000 H       1  UNL1        0.0346
     15 H           4.2214    1.2718    0.0000 H       1  UNL1        0.0346
     16 H           6.1429    0.1820    0.0000 H       1  UNL1        0.0701
     17 H           5.7411    0.8718    0.0000 H       1  UNL1        0.0701
     18 H           2.8660   -1.8527    0.0000 H       1  UNL1        0.0838
     19 H           1.4631    0.5773    0.0000 H       1  UNL1        0.0835
     20 H           3.4030    2.0773    0.0000 H       1  UNL1        0.0618
     21 H           2.0000    2.8873    0.0000 H       1  UNL1        0.0535
     22 H           1.4631    1.9573    0.0000 H       1  UNL1        0.0535
@<TRIPOS>BOND
     1     1     6    1
     2     1     9    1
     3     2     9    2
     4     3    10   ar
     5     3    11   ar
     6     4     5    1
     7     4     6    1
     8     4    14    1
     9     4    15    1
    10     5     7   ar
    11     5     8   ar
    12     6    16    1
    13     6    17    1
    14     7     9    1
    15     7    10   ar
    16     8    11   ar
    17     8    12    1
    18    10    18    1
    19    11    19    1
    20    12    13    2
    21    12    20    1
    22    13    21    1
    23    13    22    1
