@<TRIPOS>MOLECULE
IMPHY012964
 45 47 0 0 0
SMALL
GASTEIGER

@<TRIPOS>ATOM
      1 O           1.4180   -1.6396    0.0000 O.3     1  UNL1       -0.3902
      2 O           6.3067   -0.9132    0.0000 O.3     1  UNL1       -0.4608
      3 O           6.8991    0.7144    0.0000 O.2     1  UNL1       -0.2501
      4 O           9.1258   -1.9393    0.0000 O.3     1  UNL1       -0.3939
      5 N           3.7948    1.6838    0.0000 N.3     1  UNL1       -0.2967
      6 C           3.3170   -0.2647    0.0000 C.3     1  UNL1        0.0397
      7 C           3.0582    0.7012    0.0000 C.3     1  UNL1        0.0162
      8 C           1.9180   -0.7735    0.0000 C.3     1  UNL1        0.0723
      9 C           1.6592    0.1924    0.0000 C.3     1  UNL1       -0.0096
     10 C           4.5380   -1.1304    0.0000 C.3     1  UNL1        0.0024
     11 C           5.0914    0.3901    0.0000 C.3     1  UNL1        0.0001
     12 C           5.3670   -0.5712    0.0000 C.3     1  UNL1        0.1060
     13 C           4.2948    2.5498    0.0000 C.3     1  UNL1       -0.0121
     14 C           7.0728   -0.2704    0.0000 C.2     1  UNL1        0.3171
     15 C           8.0125   -0.6124    0.0000 C.3     1  UNL1        0.1044
     16 C           8.7785    0.0303    0.0000 C.ar    1  UNL1       -0.0315
     17 C           8.1861   -1.5972    0.0000 C.3     1  UNL1        0.0612
     18 C           8.6049    1.0152    0.0000 C.ar    1  UNL1       -0.0577
     19 C           9.7182   -0.3117    0.0000 C.ar    1  UNL1       -0.0577
     20 C           9.3709    1.6579    0.0000 C.ar    1  UNL1       -0.0615
     21 C          10.4842    0.3311    0.0000 C.ar    1  UNL1       -0.0615
     22 C          10.3106    1.3159    0.0000 C.ar    1  UNL1       -0.0617
     23 H           3.5370   -1.0858    0.0000 H       1  UNL1        0.0489
     24 H           2.8382    1.5223    0.0000 H       1  UNL1        0.0464
     25 H           2.3165   -1.2485    0.0000 H       1  UNL1        0.0609
     26 H           1.0652    0.0146    0.0000 H       1  UNL1        0.0306
     27 H           1.4643    0.7809    0.0000 H       1  UNL1        0.0306
     28 H           4.9438   -1.5991    0.0000 H       1  UNL1        0.0317
     29 H           4.1213   -1.5895    0.0000 H       1  UNL1        0.0317
     30 H           5.0964    1.0100    0.0000 H       1  UNL1        0.0316
     31 H           5.7057    0.4739    0.0000 H       1  UNL1        0.0316
     32 H           5.4426   -1.1866    0.0000 H       1  UNL1        0.0735
     33 H           3.7578    2.8598    0.0000 H       1  UNL1        0.0391
     34 H           4.6048    3.0868    0.0000 H       1  UNL1        0.0391
     35 H           4.8317    2.2398    0.0000 H       1  UNL1        0.0391
     36 H           0.7980   -1.6396    0.0000 H       1  UNL1        0.2098
     37 H           7.5375   -1.0110    0.0000 H       1  UNL1        0.0485
     38 H           8.0784   -2.2078    0.0000 H       1  UNL1        0.0568
     39 H           7.5661   -1.5972    0.0000 H       1  UNL1        0.0568
     40 H           8.0222    1.2272    0.0000 H       1  UNL1        0.0621
     41 H           9.8259   -0.9223    0.0000 H       1  UNL1        0.0621
     42 H           9.2335   -2.5498    0.0000 H       1  UNL1        0.2094
     43 H           9.2632    2.2685    0.0000 H       1  UNL1        0.0618
     44 H          11.0669    0.1191    0.0000 H       1  UNL1        0.0618
     45 H          10.7855    1.7144    0.0000 H       1  UNL1        0.0618
@<TRIPOS>BOND
     1     8     1    1
     2     1    36    1
     3    12     2    1
     4     2    14    1
     5     3    14    2
     6     4    17    1
     7     4    42    1
     8     5     6    1
     9     5     7    1
    10     5    13    1
    11     6     8    1
    12     6    10    1
    13     6    23    1
    14     7     9    1
    15     7    11    1
    16     7    24    1
    17     8     9    1
    18     8    25    1
    19     9    26    1
    20     9    27    1
    21    10    12    1
    22    10    28    1
    23    10    29    1
    24    11    12    1
    25    11    30    1
    26    11    31    1
    27    12    32    1
    28    13    33    1
    29    13    34    1
    30    13    35    1
    31    14    15    1
    32    15    16    1
    33    15    17    1
    34    15    37    1
    35    16    18   ar
    36    16    19   ar
    37    17    38    1
    38    17    39    1
    39    18    20   ar
    40    18    40    1
    41    19    21   ar
    42    19    41    1
    43    20    22   ar
    44    20    43    1
    45    21    22   ar
    46    21    44    1
    47    22    45    1
