@<TRIPOS>MOLECULE
IMPHY009393
 58 59 0 0 0
SMALL
GASTEIGER

@<TRIPOS>ATOM
      1 O           8.0901   -0.8069    0.0000 O.2     1  UNL1       -0.4212
      2 O           6.3301    2.2278    0.0000 O.3     1  UNL1       -0.5056
      3 O           4.5981   -0.7723    0.0000 O.3     1  UNL1       -0.5055
      4 O           7.1962   -2.2722    0.0000 O.2     1  UNL1       -0.2915
      5 O           9.8602   -0.7964    0.0000 O.2     1  UNL1       -0.2452
      6 C           8.0785    2.2623    0.0000 C.3     1  UNL1       -0.0179
      7 C           8.0901    1.2624    0.0000 C.ar    1  UNL1       -0.0236
      8 C           7.1962    0.7277    0.0000 C.ar    1  UNL1        0.0636
      9 C           7.1962   -0.2723    0.0000 C.ar    1  UNL1        0.1568
     10 C           6.3301   -0.7723    0.0000 C.ar    1  UNL1        0.1024
     11 C           8.9387    2.7723    0.0000 C.3     1  UNL1       -0.0493
     12 C           6.3301    1.2277    0.0000 C.ar    1  UNL1        0.1347
     13 C           5.4641   -2.2722    0.0000 C.3     1  UNL1        0.0193
     14 C           5.4641    0.7277    0.0000 C.ar    1  UNL1        0.0406
     15 C           5.4641   -0.2723    0.0000 C.ar    1  UNL1        0.1378
     16 C           6.3301   -1.7722    0.0000 C.2     1  UNL1        0.1730
     17 C           7.2068    2.7523    0.0000 C.3     1  UNL1       -0.0584
     18 C           8.9962    0.7486    0.0000 C.ar    1  UNL1        0.0271
     19 C           5.4641   -3.2722    0.0000 C.3     1  UNL1       -0.0463
     20 C           4.5981    1.2277    0.0000 C.3     1  UNL1       -0.0023
     21 C           8.9271    3.7722    0.0000 C.3     1  UNL1       -0.0647
     22 C           8.9962   -0.2931    0.0000 C.ar    1  UNL1        0.3375
     23 C           4.5981   -1.7722    0.0000 C.3     1  UNL1       -0.0554
     24 C           4.5981   -3.7722    0.0000 C.3     1  UNL1       -0.0646
     25 C           3.7320    0.7277    0.0000 C.2     1  UNL1       -0.0807
     26 C           2.8660    1.2277    0.0000 C.2     1  UNL1       -0.0793
     27 C           2.0000    0.7277    0.0000 C.3     1  UNL1       -0.0440
     28 C           2.8660    2.2278    0.0000 C.3     1  UNL1       -0.0440
     29 H           7.5452    1.9462    0.0000 H       1  UNL1        0.0346
     30 H           9.1575    2.1922    0.0000 H       1  UNL1        0.0268
     31 H           9.5480    2.8870    0.0000 H       1  UNL1        0.0268
     32 H           4.9272   -2.5822    0.0000 H       1  UNL1        0.0378
     33 H           7.5106    3.2928    0.0000 H       1  UNL1        0.0236
     34 H           6.6663    3.0561    0.0000 H       1  UNL1        0.0236
     35 H           6.9030    2.2118    0.0000 H       1  UNL1        0.0236
     36 H           9.5319    1.0606    0.0000 H       1  UNL1        0.0692
     37 H           5.6762   -3.8549    0.0000 H       1  UNL1        0.0269
     38 H           6.0747   -3.1646    0.0000 H       1  UNL1        0.0269
     39 H           4.9966    1.7027    0.0000 H       1  UNL1        0.0358
     40 H           4.1996    1.7027    0.0000 H       1  UNL1        0.0358
     41 H           9.5471    3.7794    0.0000 H       1  UNL1        0.0230
     42 H           8.9200    4.3922    0.0000 H       1  UNL1        0.0230
     43 H           8.3072    3.7651    0.0000 H       1  UNL1        0.0230
     44 H           4.9081   -1.2353    0.0000 H       1  UNL1        0.0237
     45 H           4.0611   -1.4622    0.0000 H       1  UNL1        0.0237
     46 H           4.2881   -2.3092    0.0000 H       1  UNL1        0.0237
     47 H           4.2881   -3.2353    0.0000 H       1  UNL1        0.0230
     48 H           4.0611   -4.0822    0.0000 H       1  UNL1        0.0230
     49 H           4.9081   -4.3092    0.0000 H       1  UNL1        0.0230
     50 H           3.7320    0.1077    0.0000 H       1  UNL1        0.0575
     51 H           5.7932    2.5378    0.0000 H       1  UNL1        0.2922
     52 H           4.0611   -0.4623    0.0000 H       1  UNL1        0.2922
     53 H           1.6900    1.2647    0.0000 H       1  UNL1        0.0274
     54 H           1.4631    0.4177    0.0000 H       1  UNL1        0.0274
     55 H           2.3100    0.1908    0.0000 H       1  UNL1        0.0274
     56 H           3.4860    2.2278    0.0000 H       1  UNL1        0.0274
     57 H           2.8660    2.8478    0.0000 H       1  UNL1        0.0274
     58 H           2.2460    2.2278    0.0000 H       1  UNL1        0.0274
@<TRIPOS>BOND
     1     1     9   ar
     2     1    22   ar
     3     2    12    1
     4     2    51    1
     5     3    15    1
     6     3    52    1
     7     4    16    2
     8     5    22    2
     9     6     7    1
    10     6    11    1
    11     6    17    1
    12     6    29    1
    13     7     8   ar
    14     7    18   ar
    15     8     9   ar
    16     8    12   ar
    17     9    10   ar
    18    10    15   ar
    19    10    16    1
    20    11    21    1
    21    11    30    1
    22    11    31    1
    23    12    14   ar
    24    13    16    1
    25    13    19    1
    26    13    23    1
    27    13    32    1
    28    14    15   ar
    29    14    20    1
    30    17    33    1
    31    17    34    1
    32    17    35    1
    33    18    22   ar
    34    18    36    1
    35    19    24    1
    36    19    37    1
    37    19    38    1
    38    20    25    1
    39    20    39    1
    40    20    40    1
    41    21    41    1
    42    21    42    1
    43    21    43    1
    44    23    44    1
    45    23    45    1
    46    23    46    1
    47    24    47    1
    48    24    48    1
    49    24    49    1
    50    25    26    2
    51    25    50    1
    52    26    27    1
    53    26    28    1
    54    27    53    1
    55    27    54    1
    56    27    55    1
    57    28    56    1
    58    28    57    1
    59    28    58    1
