@<TRIPOS>MOLECULE
IMPHY004969
 61 66 0 0 0
SMALL
GASTEIGER

@<TRIPOS>ATOM
      1 O           6.3580    2.0010    0.0000 O.2     1  UNL1       -0.4537
      2 O           6.3301   -1.9643    0.0000 O.2     1  UNL1       -0.4544
      3 O           2.8660    1.0357    0.0000 O.3     1  UNL1       -0.4945
      4 O           2.8660    2.0357    0.0000 O.3     1  UNL1       -0.5059
      5 O           4.5981    5.0357    0.0000 O.3     1  UNL1       -0.5058
      6 O           6.3465    5.0702    0.0000 O.2     1  UNL1       -0.2869
      7 O           8.9282   -0.4643    0.0000 O.2     1  UNL1       -0.2869
      8 O           9.8324   -1.9612    0.0000 O.3     1  UNL1       -0.5058
      9 O           8.0743   -5.0336    0.0000 O.3     1  UNL1       -0.5065
     10 O          10.7205    0.5015    0.0000 O.3     1  UNL1       -0.5068
     11 C           4.5981    2.0357    0.0000 C.ar    1  UNL1        0.0702
     12 C           4.5981    1.0357    0.0000 C.ar    1  UNL1        0.0315
     13 C           5.4641    2.5357    0.0000 C.ar    1  UNL1        0.1541
     14 C           5.4641    3.5357    0.0000 C.ar    1  UNL1        0.1061
     15 C           5.4641   -0.4643    0.0000 C.ar    1  UNL1        0.0182
     16 C           5.4641    0.5357    0.0000 C.ar    1  UNL1       -0.0396
     17 C           3.7320    2.5357    0.0000 C.ar    1  UNL1        0.1317
     18 C           3.7320    0.5357    0.0000 C.ar    1  UNL1        0.1280
     19 C           4.5981    4.0357    0.0000 C.ar    1  UNL1        0.1347
     20 C           6.3301   -0.9643    0.0000 C.ar    1  UNL1        0.1392
     21 C           3.7320    3.5357    0.0000 C.ar    1  UNL1        0.0229
     22 C           6.3580    4.0703    0.0000 C.ar    1  UNL1        0.1966
     23 C           7.2641    2.5148    0.0000 C.ar    1  UNL1        0.1393
     24 C           4.5981   -0.9643    0.0000 C.ar    1  UNL1       -0.0476
     25 C           3.7320   -0.4643    0.0000 C.ar    1  UNL1       -0.0187
     26 C           7.2641    3.5565    0.0000 C.ar    1  UNL1        0.0288
     27 C           8.0622   -1.9643    0.0000 C.ar    1  UNL1        0.1055
     28 C           7.1962   -2.4643    0.0000 C.ar    1  UNL1        0.1462
     29 C           8.1282    2.0115    0.0000 C.ar    1  UNL1        0.0176
     30 C           7.1962   -0.4643    0.0000 C.ar    1  UNL1        0.0288
     31 C           8.0622   -0.9643    0.0000 C.ar    1  UNL1        0.1966
     32 C           8.9722   -2.4712    0.0000 C.ar    1  UNL1        0.1347
     33 C           7.1801   -3.5058    0.0000 C.ar    1  UNL1        0.0231
     34 C           8.1244    1.0115    0.0000 C.ar    1  UNL1       -0.0476
     35 C           8.9962    2.5082    0.0000 C.ar    1  UNL1       -0.0476
     36 C           8.0781   -4.0336    0.0000 C.ar    1  UNL1        0.1239
     37 C           8.9802   -3.5128    0.0000 C.ar    1  UNL1        0.0223
     38 C           8.9884    0.5082    0.0000 C.ar    1  UNL1       -0.0195
     39 C           9.8602    2.0048    0.0000 C.ar    1  UNL1       -0.0195
     40 C           2.0000    0.5357    0.0000 C.3     1  UNL1        0.0788
     41 C           9.8564    1.0048    0.0000 C.ar    1  UNL1        0.1169
     42 H           6.0010    0.8457    0.0000 H       1  UNL1        0.0632
     43 H           3.1951    3.8457    0.0000 H       1  UNL1        0.0691
     44 H           4.5981   -1.5843    0.0000 H       1  UNL1        0.0626
     45 H           3.1951   -0.7743    0.0000 H       1  UNL1        0.0654
     46 H           7.7998    3.8685    0.0000 H       1  UNL1        0.0693
     47 H           7.1962    0.1557    0.0000 H       1  UNL1        0.0693
     48 H           6.6396   -3.8096    0.0000 H       1  UNL1        0.0691
     49 H           2.3291    2.3457    0.0000 H       1  UNL1        0.2922
     50 H           7.5862    0.7036    0.0000 H       1  UNL1        0.0626
     51 H           8.9985    3.1282    0.0000 H       1  UNL1        0.0626
     52 H           9.5183   -3.8207    0.0000 H       1  UNL1        0.0691
     53 H           4.0611    5.3457    0.0000 H       1  UNL1        0.2922
     54 H           8.9860   -0.1118    0.0000 H       1  UNL1        0.0654
     55 H          10.3984    2.3128    0.0000 H       1  UNL1        0.0654
     56 H           1.6900    1.0726    0.0000 H       1  UNL1        0.0660
     57 H           1.4631    0.2257    0.0000 H       1  UNL1        0.0660
     58 H           2.3100   -0.0013    0.0000 H       1  UNL1        0.0660
     59 H          10.3728   -2.2650    0.0000 H       1  UNL1        0.2922
     60 H           8.6100   -5.3457    0.0000 H       1  UNL1        0.2921
     61 H          11.2586    0.8094    0.0000 H       1  UNL1        0.2921
@<TRIPOS>BOND
     1     1    13   ar
     2     1    23   ar
     3     2    20   ar
     4     2    28   ar
     5     3    18    1
     6     3    40    1
     7     4    17    1
     8     4    49    1
     9     5    19    1
    10     5    53    1
    11     6    22    2
    12     7    31    2
    13     8    32    1
    14     8    59    1
    15     9    36    1
    16     9    60    1
    17    10    41    1
    18    10    61    1
    19    11    12    1
    20    11    13   ar
    21    11    17   ar
    22    12    16   ar
    23    12    18   ar
    24    13    14   ar
    25    14    19   ar
    26    14    22   ar
    27    15    16   ar
    28    15    20    1
    29    15    24   ar
    30    16    42    1
    31    17    21   ar
    32    18    25   ar
    33    19    21   ar
    34    20    30   ar
    35    21    43    1
    36    22    26   ar
    37    23    26   ar
    38    23    29    1
    39    24    25   ar
    40    24    44    1
    41    25    45    1
    42    26    46    1
    43    27    28   ar
    44    27    31   ar
    45    27    32   ar
    46    28    33   ar
    47    29    34   ar
    48    29    35   ar
    49    30    31   ar
    50    30    47    1
    51    32    37   ar
    52    33    36   ar
    53    33    48    1
    54    34    38   ar
    55    34    50    1
    56    35    39   ar
    57    35    51    1
    58    36    37   ar
    59    37    52    1
    60    38    41   ar
    61    38    54    1
    62    39    41   ar
    63    39    55    1
    64    40    56    1
    65    40    57    1
    66    40    58    1
