@<TRIPOS>MOLECULE
IMPHY016352
 28 28 0 0 0
SMALL
GASTEIGER

@<TRIPOS>ATOM
      1 O           2.8660    1.5000    0.0000 O.3     1  UNL1       -0.4913
      2 O           4.5981    2.5000    0.0000 O.3     1  UNL1       -0.4885
      3 O           6.3301    1.5000    0.0000 O.3     1  UNL1       -0.5032
      4 C           4.5981   -0.5000    0.0000 C.ar    1  UNL1       -0.0365
      5 C           4.5981   -1.5000    0.0000 C.3     1  UNL1       -0.0095
      6 C           3.7320    0.0000    0.0000 C.ar    1  UNL1       -0.0126
      7 C           3.7320    1.0000    0.0000 C.ar    1  UNL1        0.1654
      8 C           5.4641   -0.0000    0.0000 C.ar    1  UNL1       -0.0128
      9 C           4.5981    1.5000    0.0000 C.ar    1  UNL1        0.2033
     10 C           5.4641    1.0000    0.0000 C.ar    1  UNL1        0.1624
     11 C           3.7320   -2.0000    0.0000 C.2     1  UNL1       -0.0868
     12 C           2.0000    1.0000    0.0000 C.3     1  UNL1        0.0790
     13 C           5.4641    3.0000    0.0000 C.3     1  UNL1        0.0791
     14 C           3.7320   -3.0000    0.0000 C.2     1  UNL1       -0.1023
     15 H           4.8101   -2.0826    0.0000 H       1  UNL1        0.0355
     16 H           5.2087   -1.3923    0.0000 H       1  UNL1        0.0355
     17 H           3.1951   -0.3100    0.0000 H       1  UNL1        0.0658
     18 H           6.0010   -0.3100    0.0000 H       1  UNL1        0.0658
     19 H           3.1951   -1.6900    0.0000 H       1  UNL1        0.0570
     20 H           6.8671    1.1900    0.0000 H       1  UNL1        0.2923
     21 H           1.6900    1.5369    0.0000 H       1  UNL1        0.0660
     22 H           1.4631    0.6900    0.0000 H       1  UNL1        0.0660
     23 H           2.3100    0.4631    0.0000 H       1  UNL1        0.0660
     24 H           5.7741    2.4631    0.0000 H       1  UNL1        0.0660
     25 H           6.0010    3.3100    0.0000 H       1  UNL1        0.0660
     26 H           5.1541    3.5369    0.0000 H       1  UNL1        0.0660
     27 H           3.1951   -3.3100    0.0000 H       1  UNL1        0.0532
     28 H           4.2690   -3.3100    0.0000 H       1  UNL1        0.0532
@<TRIPOS>BOND
     1     1     7    1
     2     1    12    1
     3     2     9    1
     4     2    13    1
     5     3    10    1
     6     3    20    1
     7     4     5    1
     8     4     6   ar
     9     4     8   ar
    10     5    11    1
    11     5    15    1
    12     5    16    1
    13     6     7   ar
    14     6    17    1
    15     7     9   ar
    16     8    10   ar
    17     8    18    1
    18     9    10   ar
    19    11    14    2
    20    11    19    1
    21    12    21    1
    22    12    22    1
    23    12    23    1
    24    13    24    1
    25    13    25    1
    26    13    26    1
    27    14    27    1
    28    14    28    1
