@<TRIPOS>MOLECULE
IMPHY005519
 41 41 0 0 0
SMALL
GASTEIGER

@<TRIPOS>ATOM
      1 S           6.0010    0.4050    0.0000 S.3     1  UNL1       -0.0726
      2 S           8.5991    1.9050    0.0000 S.O2    1  UNL1        0.2709
      3 O           4.2690    0.4050    0.0000 O.3     1  UNL1       -0.3549
      4 O           4.2690   -2.5950    0.0000 O.3     1  UNL1       -0.3865
      5 O           2.5369   -1.5950    0.0000 O.3     1  UNL1       -0.3865
      6 O           6.0010   -1.5950    0.0000 O.3     1  UNL1       -0.3857
      7 O           2.5369    1.4050    0.0000 O.3     1  UNL1       -0.3924
      8 O           7.7331    1.4050    0.0000 O.2     1  UNL1       -0.2068
      9 O           9.4651    2.4050    0.0000 O.3     1  UNL1       -0.2209
     10 O           9.0991    1.0390    0.0000 O.2     1  UNL1       -0.1060
     11 O           8.0991    2.7710    0.0000 O.2     1  UNL1       -0.1060
     12 N           6.8671    1.9050    0.0000 N.2     1  UNL1       -0.0480
     13 C           4.2690   -1.5950    0.0000 C.3     1  UNL1        0.1126
     14 C           3.4030   -1.0950    0.0000 C.3     1  UNL1        0.1118
     15 C           5.1350   -1.0950    0.0000 C.3     1  UNL1        0.1192
     16 C           3.4030   -0.0950    0.0000 C.3     1  UNL1        0.1115
     17 C           5.1350   -0.0950    0.0000 C.3     1  UNL1        0.1384
     18 C           2.5369    0.4050    0.0000 C.3     1  UNL1        0.0730
     19 C           6.0010    1.4050    0.0000 C.2     1  UNL1        0.1207
     20 C           5.1350    1.9050    0.0000 C.3     1  UNL1        0.0051
     21 C           5.1350    2.9050    0.0000 C.3     1  UNL1       -0.0566
     22 C           4.2690    1.4050    0.0000 C.3     1  UNL1       -0.0566
     23 H           4.8059   -1.9050    0.0000 H       1  UNL1        0.0647
     24 H           3.4030   -1.7150    0.0000 H       1  UNL1        0.0647
     25 H           5.6720   -0.7850    0.0000 H       1  UNL1        0.0655
     26 H           3.4030    0.5250    0.0000 H       1  UNL1        0.0646
     27 H           5.1350    0.5250    0.0000 H       1  UNL1        0.0743
     28 H           1.9264    0.5127    0.0000 H       1  UNL1        0.0584
     29 H           2.3249   -0.1776    0.0000 H       1  UNL1        0.0584
     30 H           3.7320   -2.9050    0.0000 H       1  UNL1        0.2100
     31 H           2.0000   -1.2850    0.0000 H       1  UNL1        0.2100
     32 H           6.5380   -1.2850    0.0000 H       1  UNL1        0.2100
     33 H           5.1350    1.2850    0.0000 H       1  UNL1        0.0365
     34 H           2.0000    1.7150    0.0000 H       1  UNL1        0.2095
     35 H           5.7550    2.9050    0.0000 H       1  UNL1        0.0236
     36 H           3.9590    1.9419    0.0000 H       1  UNL1        0.0236
     37 H           3.7320    1.0950    0.0000 H       1  UNL1        0.0236
     38 H           4.5790    0.8681    0.0000 H       1  UNL1        0.0236
     39 H           5.1350    3.5250    0.0000 H       1  UNL1        0.0236
     40 H           4.5150    2.9050    0.0000 H       1  UNL1        0.0236
     41 H          10.0021    2.0950    0.0000 H       1  UNL1        0.2480
@<TRIPOS>BOND
     1    17     1    1
     2     1    19    1
     3     2     8    1
     4     2     9    1
     5     2    10    2
     6     2    11    2
     7     3    16    1
     8     3    17    1
     9    13     4    1
    10     4    30    1
    11    14     5    1
    12     5    31    1
    13    15     6    1
    14     6    32    1
    15     7    18    1
    16     7    34    1
    17     8    12    1
    18     9    41    1
    19    12    19    2
    20    13    14    1
    21    13    15    1
    22    13    23    1
    23    14    16    1
    24    14    24    1
    25    15    17    1
    26    15    25    1
    27    16    18    1
    28    16    26    1
    29    17    27    1
    30    18    28    1
    31    18    29    1
    32    19    20    1
    33    20    21    1
    34    20    22    1
    35    20    33    1
    36    21    35    1
    37    21    39    1
    38    21    40    1
    39    22    36    1
    40    22    37    1
    41    22    38    1
