@<TRIPOS>MOLECULE
IMPHY012390
 58 61 0 0 0
SMALL
GASTEIGER

@<TRIPOS>ATOM
      1 O           4.1910    1.3909    0.0000 O.3     1  UNL1       -0.4842
      2 O           2.5440   -1.7000    0.0000 O.3     1  UNL1       -0.5055
      3 O           6.0822   -1.5901    0.0000 O.3     1  UNL1       -0.5051
      4 O           6.8832   -0.0029    0.0000 O.2     1  UNL1       -0.2955
      5 O           3.4950   -3.2021    0.0000 O.2     1  UNL1       -0.2918
      6 C           4.5291    2.7260    0.0000 C.3     1  UNL1        0.0046
      7 C           5.9280    2.7348    0.0000 C.3     1  UNL1       -0.0256
      8 C           4.7879    3.6919    0.0000 C.3     1  UNL1       -0.0350
      9 C           3.3080    1.8603    0.0000 C.3     1  UNL1        0.1143
     10 C           4.0513    4.6745    0.0000 C.3     1  UNL1       -0.0427
     11 C           2.7546    3.3808    0.0000 C.3     1  UNL1       -0.0461
     12 C           2.4790    2.4195    0.0000 C.3     1  UNL1       -0.0124
     13 C           2.4600    1.3304    0.0000 C.3     1  UNL1       -0.0084
     14 C           6.7940    3.2348    0.0000 C.3     1  UNL1       -0.0592
     15 C           6.4280    1.8688    0.0000 C.3     1  UNL1       -0.0592
     16 C           2.4949    0.3310    0.0000 C.3     1  UNL1       -0.0171
     17 C           4.2259    0.3915    0.0000 C.ar    1  UNL1        0.1417
     18 C           3.3778   -0.1385    0.0000 C.ar    1  UNL1        0.0374
     19 C           5.1530   -0.0833    0.0000 C.ar    1  UNL1        0.0983
     20 C           3.3981   -1.1799    0.0000 C.ar    1  UNL1        0.1375
     21 C           4.3140   -1.6760    0.0000 C.ar    1  UNL1        0.1012
     22 C           5.1974   -1.1240    0.0000 C.ar    1  UNL1        0.1446
     23 C           5.9949    0.4564    0.0000 C.2     1  UNL1        0.1573
     24 C           4.3451   -2.6755    0.0000 C.2     1  UNL1        0.1705
     25 C           5.2262   -3.1484    0.0000 C.3     1  UNL1        0.0130
     26 C           5.2573   -4.1479    0.0000 C.3     1  UNL1       -0.0397
     27 C           6.1384   -4.6208    0.0000 C.3     1  UNL1       -0.0623
     28 C           4.4072   -4.6745    0.0000 C.3     1  UNL1       -0.0623
     29 H           4.3091    1.9050    0.0000 H       1  UNL1        0.0345
     30 H           5.0079    4.5130    0.0000 H       1  UNL1        0.0306
     31 H           4.3691    5.2069    0.0000 H       1  UNL1        0.0272
     32 H           3.4381    4.7665    0.0000 H       1  UNL1        0.0272
     33 H           2.7496    4.0008    0.0000 H       1  UNL1        0.0269
     34 H           2.1403    3.4646    0.0000 H       1  UNL1        0.0269
     35 H           1.9042    2.6518    0.0000 H       1  UNL1        0.0304
     36 H           2.1879    1.8721    0.0000 H       1  UNL1        0.0304
     37 H           2.2277    1.9053    0.0000 H       1  UNL1        0.0307
     38 H           1.8536    1.2015    0.0000 H       1  UNL1        0.0307
     39 H           7.1040    2.6979    0.0000 H       1  UNL1        0.0235
     40 H           7.3310    3.5448    0.0000 H       1  UNL1        0.0235
     41 H           6.4840    3.7718    0.0000 H       1  UNL1        0.0235
     42 H           5.8911    1.5588    0.0000 H       1  UNL1        0.0235
     43 H           6.7380    1.3318    0.0000 H       1  UNL1        0.0235
     44 H           6.9649    2.1788    0.0000 H       1  UNL1        0.0235
     45 H           1.8809    0.4173    0.0000 H       1  UNL1        0.0317
     46 H           2.3033   -0.2586    0.0000 H       1  UNL1        0.0317
     47 H           5.9661    1.0757    0.0000 H       1  UNL1        0.1084
     48 H           2.0000   -1.4026    0.0000 H       1  UNL1        0.2922
     49 H           6.1062   -2.2096    0.0000 H       1  UNL1        0.2922
     50 H           5.8399   -3.2370    0.0000 H       1  UNL1        0.0348
     51 H           5.4201   -2.5594    0.0000 H       1  UNL1        0.0348
     52 H           5.2765   -4.7676    0.0000 H       1  UNL1        0.0300
     53 H           5.8452   -5.1671    0.0000 H       1  UNL1        0.0232
     54 H           6.6847   -4.9139    0.0000 H       1  UNL1        0.0232
     55 H           6.4316   -4.0744    0.0000 H       1  UNL1        0.0232
     56 H           4.0807   -4.1475    0.0000 H       1  UNL1        0.0232
     57 H           3.8801   -5.0010    0.0000 H       1  UNL1        0.0232
     58 H           4.7337   -5.2016    0.0000 H       1  UNL1        0.0232
@<TRIPOS>BOND
     1     9     1    1
     2     1    17    1
     3     2    20    1
     4     2    48    1
     5     3    22    1
     6     3    49    1
     7     4    23    2
     8     5    24    2
     9     6     7    1
    10     6     9    1
    11     6    10    1
    12     6    29    1
    13     7     8    1
    14     7    14    1
    15     7    15    1
    16     8    10    1
    17     8    11    1
    18     8    30    1
    19     9    12    1
    20     9    13    1
    21    10    31    1
    22    10    32    1
    23    11    12    1
    24    11    33    1
    25    11    34    1
    26    12    35    1
    27    12    36    1
    28    13    16    1
    29    13    37    1
    30    13    38    1
    31    14    39    1
    32    14    40    1
    33    14    41    1
    34    15    42    1
    35    15    43    1
    36    15    44    1
    37    16    18    1
    38    16    45    1
    39    16    46    1
    40    17    18   ar
    41    17    19   ar
    42    18    20   ar
    43    19    22   ar
    44    19    23    1
    45    20    21   ar
    46    21    22   ar
    47    21    24    1
    48    23    47    1
    49    24    25    1
    50    25    26    1
    51    25    50    1
    52    25    51    1
    53    26    27    1
    54    26    28    1
    55    26    52    1
    56    27    53    1
    57    27    54    1
    58    27    55    1
    59    28    56    1
    60    28    57    1
    61    28    58    1
