@<TRIPOS>MOLECULE
IMPHY016305
 26 27 0 0 0
SMALL
GASTEIGER

@<TRIPOS>ATOM
      1 F           2.0000   -0.7500    0.0000 F       1  UNL1       -0.2016
      2 F           3.7320   -3.7500    0.0000 F       1  UNL1       -0.2054
      3 O           3.7320    0.2500    0.0000 O.3     1  UNL1       -0.4845
      4 C           4.5981    1.7500    0.0000 C.ar    1  UNL1       -0.0104
      5 C           4.5981    0.7500    0.0000 C.3     1  UNL1        0.1148
      6 C           3.7320   -0.7500    0.0000 C.ar    1  UNL1        0.1562
      7 C           5.4641    2.2500    0.0000 C.ar    1  UNL1       -0.0554
      8 C           3.7320    2.2500    0.0000 C.ar    1  UNL1       -0.0554
      9 C           2.8660   -1.2500    0.0000 C.ar    1  UNL1        0.1675
     10 C           4.5981   -1.2500    0.0000 C.ar    1  UNL1       -0.0143
     11 C           5.4641    3.2500    0.0000 C.ar    1  UNL1       -0.0614
     12 C           3.7320    3.2500    0.0000 C.ar    1  UNL1       -0.0614
     13 C           4.5981    3.7500    0.0000 C.ar    1  UNL1       -0.0617
     14 C           2.8660   -2.2500    0.0000 C.ar    1  UNL1        0.0124
     15 C           4.5981   -2.2500    0.0000 C.ar    1  UNL1       -0.0228
     16 C           3.7320   -2.7500    0.0000 C.ar    1  UNL1        0.1264
     17 H           4.8101    0.1674    0.0000 H       1  UNL1        0.0748
     18 H           5.2087    0.8577    0.0000 H       1  UNL1        0.0748
     19 H           6.0010    1.9400    0.0000 H       1  UNL1        0.0621
     20 H           3.1951    1.9400    0.0000 H       1  UNL1        0.0621
     21 H           5.1350   -0.9400    0.0000 H       1  UNL1        0.0656
     22 H           6.0010    3.5600    0.0000 H       1  UNL1        0.0618
     23 H           3.1951    3.5600    0.0000 H       1  UNL1        0.0618
     24 H           4.5981    4.3700    0.0000 H       1  UNL1        0.0618
     25 H           2.3291   -2.5600    0.0000 H       1  UNL1        0.0676
     26 H           5.1350   -2.5600    0.0000 H       1  UNL1        0.0647
@<TRIPOS>BOND
     1     1     9    1
     2     2    16    1
     3     3     5    1
     4     3     6    1
     5     4     5    1
     6     4     7   ar
     7     4     8   ar
     8     5    17    1
     9     5    18    1
    10     6     9   ar
    11     6    10   ar
    12     7    11   ar
    13     7    19    1
    14     8    12   ar
    15     8    20    1
    16     9    14   ar
    17    10    15   ar
    18    10    21    1
    19    11    13   ar
    20    11    22    1
    21    12    13   ar
    22    12    23    1
    23    13    24    1
    24    14    16   ar
    25    14    25    1
    26    15    16   ar
    27    15    26    1
