@<TRIPOS>MOLECULE
IMPHY006050
 41 44 0 0 0
SMALL
GASTEIGER

@<TRIPOS>ATOM
      1 CL          4.5065    0.0000    0.0000 Cl      1  UNL1        0.0000
      2 O           9.3629    4.1398    0.0000 O.3     2  UNL2       -0.4526
      3 O           7.9110    3.3016    0.0000 O.3     2  UNL2       -0.4526
      4 O           3.2255    8.9608    0.0000 O.3     2  UNL2       -0.5028
      5 O           1.4061    7.9290    0.0000 O.3     2  UNL2       -0.4914
      6 N           5.9451    7.3832    0.0000 N.ar    2  UNL2       -0.1961
      7 C           6.8111    7.8832    0.0000 C.3     2  UNL2        0.1550
      8 C           7.6772    7.3832    0.0000 C.3     2  UNL2        0.0330
      9 C           5.9451    6.3832    0.0000 C.ar    2  UNL2        0.2159
     10 C           7.6772    6.3832    0.0000 C.ar    2  UNL2       -0.0243
     11 C           6.8111    5.8832    0.0000 C.ar    2  UNL2        0.0533
     12 C           5.0512    7.9178    0.0000 C.ar    2  UNL2        0.1831
     13 C           5.0512    5.8485    0.0000 C.ar    2  UNL2        0.0183
     14 C           4.1451    7.4040    0.0000 C.ar    2  UNL2        0.0907
     15 C           4.1451    6.3623    0.0000 C.ar    2  UNL2       -0.0022
     16 C           8.5872    5.8763    0.0000 C.ar    2  UNL2       -0.0120
     17 C           6.7951    4.8416    0.0000 C.ar    2  UNL2       -0.0025
     18 C           8.5952    4.8347    0.0000 C.ar    2  UNL2        0.1665
     19 C           7.6931    4.3139    0.0000 C.ar    2  UNL2        0.1670
     20 C           3.2140    7.9609    0.0000 C.ar    2  UNL2        0.1720
     21 C           3.2140    5.8054    0.0000 C.ar    2  UNL2       -0.0499
     22 C           2.2702    7.4256    0.0000 C.ar    2  UNL2        0.1621
     23 C           8.9409    3.1943    0.0000 C.3     2  UNL2        0.2332
     24 C           2.2702    6.3406    0.0000 C.ar    2  UNL2       -0.0157
     25 C           0.5381    7.4323    0.0000 C.3     2  UNL2        0.0790
     26 H           7.2097    8.3581    0.0000 H       2  UNL2        0.1034
     27 H           6.4126    8.3581    0.0000 H       2  UNL2        0.1034
     28 H           8.2878    7.2755    0.0000 H       2  UNL2        0.0375
     29 H           7.8892    7.9658    0.0000 H       2  UNL2        0.0375
     30 H           5.0583    8.5378    0.0000 H       2  UNL2        0.1384
     31 H           5.0583    5.2285    0.0000 H       2  UNL2        0.0690
     32 H           9.1205    6.1925    0.0000 H       2  UNL2        0.0658
     33 H           6.2546    4.5379    0.0000 H       2  UNL2        0.0663
     34 H           3.2211    5.1854    0.0000 H       2  UNL2        0.0625
     35 H           8.8122    2.5878    0.0000 H       2  UNL2        0.1166
     36 H           9.5305    3.0025    0.0000 H       2  UNL2        0.1166
     37 H           1.7344    6.0286    0.0000 H       2  UNL2        0.0655
     38 H           2.6922    9.2770    0.0000 H       2  UNL2        0.2923
     39 H           0.2302    7.9704    0.0000 H       2  UNL2        0.0660
     40 H           0.0000    7.1244    0.0000 H       2  UNL2        0.0660
     41 H           0.8461    6.8942    0.0000 H       2  UNL2        0.0660
@<TRIPOS>UNITY_ATOM_ATTR
1 1
charge -1
6 1
charge 1
@<TRIPOS>BOND
     1     2    18    1
     2     2    23    1
     3     3    19    1
     4     3    23    1
     5     4    20    1
     6     4    38    1
     7     5    22    1
     8     5    25    1
     9     6     7    1
    10     6     9   ar
    11     6    12   ar
    12     7     8    1
    13     7    26    1
    14     7    27    1
    15     8    10    1
    16     8    28    1
    17     8    29    1
    18     9    11    1
    19     9    13   ar
    20    10    11   ar
    21    10    16   ar
    22    11    17   ar
    23    12    14   ar
    24    12    30    1
    25    13    15   ar
    26    13    31    1
    27    14    15   ar
    28    14    20   ar
    29    15    21   ar
    30    16    18   ar
    31    16    32    1
    32    17    19   ar
    33    17    33    1
    34    18    19   ar
    35    20    22   ar
    36    21    24   ar
    37    21    34    1
    38    22    24   ar
    39    23    35    1
    40    23    36    1
    41    24    37    1
    42    25    39    1
    43    25    40    1
    44    25    41    1
