@<TRIPOS>MOLECULE
IMPHY016430
 24 26 0 0 0
SMALL
GASTEIGER

@<TRIPOS>ATOM
      1 O           4.5274    0.8623    0.0000 O.2     1  UNL1       -0.4545
      2 C           5.0274   -0.6766    0.0000 C.ar    1  UNL1        0.0282
      3 C           4.0274   -0.6766    0.0000 C.ar    1  UNL1        0.0279
      4 C           5.3364    0.2745    0.0000 C.ar    1  UNL1        0.1391
      5 C           3.7183    0.2745    0.0000 C.ar    1  UNL1        0.1363
      6 C           6.3518    0.5067    0.0000 C.ar    1  UNL1       -0.0076
      7 C           5.7123   -1.4613    0.0000 C.ar    1  UNL1       -0.0504
      8 C           3.3424   -1.4613    0.0000 C.ar    1  UNL1       -0.0504
      9 C           7.0547   -0.2619    0.0000 C.ar    1  UNL1       -0.0553
     10 C           2.7029    0.5067    0.0000 C.ar    1  UNL1       -0.0187
     11 C           6.7328   -1.2526    0.0000 C.ar    1  UNL1       -0.0607
     12 C           6.6498    1.4613    0.0000 C.3     1  UNL1       -0.0362
     13 C           2.3219   -1.2526    0.0000 C.ar    1  UNL1       -0.0610
     14 C           2.0000   -0.2619    0.0000 C.ar    1  UNL1       -0.0582
     15 H           5.5139   -2.0487    0.0000 H       1  UNL1        0.0625
     16 H           3.5408   -2.0487    0.0000 H       1  UNL1        0.0625
     17 H           7.6607   -0.1307    0.0000 H       1  UNL1        0.0621
     18 H           2.5182    1.0986    0.0000 H       1  UNL1        0.0654
     19 H           7.1459   -1.7149    0.0000 H       1  UNL1        0.0618
     20 H           7.2416    1.2766    0.0000 H       1  UNL1        0.0279
     21 H           6.8345    2.0531    0.0000 H       1  UNL1        0.0279
     22 H           6.0580    1.6461    0.0000 H       1  UNL1        0.0279
     23 H           1.9088   -1.7149    0.0000 H       1  UNL1        0.0618
     24 H           1.3940   -0.1307    0.0000 H       1  UNL1        0.0619
@<TRIPOS>BOND
     1     1     4   ar
     2     1     5   ar
     3     2     3   ar
     4     2     4   ar
     5     2     7   ar
     6     3     5   ar
     7     3     8   ar
     8     4     6   ar
     9     5    10   ar
    10     6     9   ar
    11     6    12    1
    12     7    11   ar
    13     7    15    1
    14     8    13   ar
    15     8    16    1
    16     9    11   ar
    17     9    17    1
    18    10    14   ar
    19    10    18    1
    20    11    19    1
    21    12    20    1
    22    12    21    1
    23    12    22    1
    24    13    14   ar
    25    13    23    1
    26    14    24    1
