@<TRIPOS>MOLECULE
IMPHY004574
 48 50 0 0 0
SMALL
GASTEIGER

@<TRIPOS>ATOM
      1 O           4.5787    0.5343    0.0000 O.3     1  UNL1       -0.4561
      2 O           7.1188    0.0455    0.0000 O.3     1  UNL1       -0.4579
      3 O           2.8660    0.5455    0.0000 O.2     1  UNL1       -0.2453
      4 O           5.8496   -2.3273    0.0000 O.3     1  UNL1       -0.3718
      5 O           7.9848   -1.4322    0.0000 O.2     1  UNL1       -0.2471
      6 O           7.4969   -2.6457    0.0000 O.3     1  UNL1       -0.3913
      7 N           5.4255    2.9785    0.0000 N.3     1  UNL1       -0.2886
      8 C           5.4255    2.0008    0.0000 C.3     1  UNL1        0.0723
      9 C           4.5787    1.5120    0.0000 C.3     1  UNL1        0.1239
     10 C           3.8842    2.4408    0.0000 C.3     1  UNL1       -0.0010
     11 C           4.4056    3.2229    0.0000 C.3     1  UNL1        0.0033
     12 C           6.2721    1.5120    0.0000 C.2     1  UNL1       -0.0148
     13 C           6.3609    3.2446    0.0000 C.3     1  UNL1        0.0182
     14 C           6.9692    2.4408    0.0000 C.2     1  UNL1       -0.0660
     15 C           6.2721    0.5343    0.0000 C.3     1  UNL1        0.1153
     16 C           3.7320    0.0455    0.0000 C.2     1  UNL1        0.3355
     17 C           6.2721   -1.4210    0.0000 C.3     1  UNL1        0.2067
     18 C           3.7320   -0.9322    0.0000 C.2     1  UNL1        0.0365
     19 C           7.1188   -0.9322    0.0000 C.2     1  UNL1        0.3461
     20 C           4.5787   -1.4210    0.0000 C.3     1  UNL1        0.0030
     21 C           5.4255   -0.9322    0.0000 C.2     1  UNL1       -0.0280
     22 C           6.5309   -2.3869    0.0000 C.3     1  UNL1        0.0874
     23 C           2.8660   -1.4322    0.0000 C.2     1  UNL1       -0.0768
     24 C           5.4255    0.0678    0.0000 C.2     1  UNL1       -0.0958
     25 C           2.0000   -0.9322    0.0000 C.3     1  UNL1       -0.0460
     26 H           5.4255    1.1508    0.0000 H       1  UNL1        0.0547
     27 H           3.7721    1.2438    0.0000 H       1  UNL1        0.0753
     28 H           3.4106    2.8409    0.0000 H       1  UNL1        0.0314
     29 H           3.4329    2.0156    0.0000 H       1  UNL1        0.0314
     30 H           4.6198    3.8047    0.0000 H       1  UNL1        0.0428
     31 H           3.8529    3.5039    0.0000 H       1  UNL1        0.0428
     32 H           6.8976    3.5550    0.0000 H       1  UNL1        0.0470
     33 H           6.1190    3.8155    0.0000 H       1  UNL1        0.0470
     34 H           7.5892    2.4420    0.0000 H       1  UNL1        0.0586
     35 H           5.6615    0.6420    0.0000 H       1  UNL1        0.0746
     36 H           6.0601   -0.0483    0.0000 H       1  UNL1        0.0746
     37 H           4.1802   -1.8959    0.0000 H       1  UNL1        0.0361
     38 H           4.9772   -1.8960    0.0000 H       1  UNL1        0.0361
     39 H           5.9133   -2.4410    0.0000 H       1  UNL1        0.0595
     40 H           6.4769   -3.0046    0.0000 H       1  UNL1        0.0595
     41 H           2.8660   -2.0522    0.0000 H       1  UNL1        0.0574
     42 H           5.2319   -2.3814    0.0000 H       1  UNL1        0.2114
     43 H           5.9624    0.3778    0.0000 H       1  UNL1        0.0536
     44 H           4.8885    0.3778    0.0000 H       1  UNL1        0.0536
     45 H           2.3100   -0.3952    0.0000 H       1  UNL1        0.0272
     46 H           1.4631   -0.6222    0.0000 H       1  UNL1        0.0272
     47 H           1.6900   -1.4691    0.0000 H       1  UNL1        0.0272
     48 H           7.6573   -3.2446    0.0000 H       1  UNL1        0.2096
@<TRIPOS>BOND
     1     1     9    1
     2     1    16    1
     3     2    15    1
     4     2    19    1
     5     3    16    2
     6    17     4    1
     7     4    42    1
     8     5    19    2
     9     6    22    1
    10     6    48    1
    11     7     8    1
    12     7    11    1
    13     7    13    1
    14     8     9    1
    15     8    12    1
    16     8    26    1
    17     9    10    1
    18     9    27    1
    19    10    11    1
    20    10    28    1
    21    10    29    1
    22    11    30    1
    23    11    31    1
    24    12    14    2
    25    12    15    1
    26    13    14    1
    27    13    32    1
    28    13    33    1
    29    14    34    1
    30    15    35    1
    31    15    36    1
    32    16    18    1
    33    17    19    1
    34    17    21    1
    35    17    22    1
    36    18    20    1
    37    18    23    2
    38    20    21    1
    39    20    37    1
    40    20    38    1
    41    21    24    2
    42    22    39    1
    43    22    40    1
    44    23    25    1
    45    23    41    1
    46    24    43    1
    47    24    44    1
    48    25    45    1
    49    25    46    1
    50    25    47    1
