@<TRIPOS>MOLECULE
IMPHY006652
 19 18 0 0 0
SMALL
GASTEIGER

@<TRIPOS>ATOM
      1 O           5.1350    0.5000    0.0000 O.3     1  UNL1       -0.4795
      2 OXT         4.2690    2.0000    0.0000 O.2     1  UNL1       -0.2493
      3 N           2.5369    1.0000    0.0000 N.3     1  UNL1       -0.3184
      4 C           3.4030   -0.5000    0.0000 C.3     1  UNL1       -0.0276
      5 CA          3.4030    0.5000    0.0000 C.3     1  UNL1        0.1032
      6 C           2.5369   -1.0000    0.0000 C.3     1  UNL1       -0.0540
      7 C           2.5369   -2.0000    0.0000 C.3     1  UNL1       -0.0652
      8 C           4.2690    1.0000    0.0000 C.2     1  UNL1        0.3217
      9 H           3.6150   -1.0826    0.0000 H       1  UNL1        0.0285
     10 H           4.0135   -0.3923    0.0000 H       1  UNL1        0.0285
     11 HA          3.4030    1.1200    0.0000 H       1  UNL1        0.0574
     12 H           2.3249   -0.4174    0.0000 H       1  UNL1        0.0263
     13 H           1.9264   -1.1077    0.0000 H       1  UNL1        0.0263
     14 H           1.9169   -2.0000    0.0000 H       1  UNL1        0.0230
     15 H           2.5369   -2.6200    0.0000 H       1  UNL1        0.0230
     16 H           3.1569   -2.0000    0.0000 H       1  UNL1        0.0230
     17 H1          2.0000    0.6900    0.0000 H       1  UNL1        0.1190
     18 H2          2.5369    1.6200    0.0000 H       1  UNL1        0.1190
     19 H           5.6720    0.8100    0.0000 H       1  UNL1        0.2951
@<TRIPOS>BOND
     1     1     8    1
     2     1    19    1
     3     2     8    2
     4     5     3    1
     5     3    17    1
     6     3    18    1
     7     4     5    1
     8     4     6    1
     9     4     9    1
    10     4    10    1
    11     5     8    1
    12     5    11    1
    13     6     7    1
    14     6    12    1
    15     6    13    1
    16     7    14    1
    17     7    15    1
    18     7    16    1
