@<TRIPOS>MOLECULE
IMPHY017928
 7 6 0 0 0
SMALL
GASTEIGER

@<TRIPOS>ATOM
      1 O           4.5981    0.7500    0.0000 O.3     1  UNL1       -0.3305
      2 O           2.8660    0.7500    0.0000 O.3     1  UNL1       -0.3278
      3 C           3.7321    0.2500    0.0000 C.3     1  UNL1        0.2353
      4 C           5.4641    0.2500    0.0000 C.3     1  UNL1        0.1449
      5 C           3.7321   -0.7500    0.0000 C.3     1  UNL1        0.0665
      6 C           6.3301    0.7500    0.0000 C.3     1  UNL1        0.0347
      7 C           2.0000    0.2500    0.0000 C.3     1  UNL1        0.1768
@<TRIPOS>BOND
     1     1     3    1
     2     1     4    1
     3     2     3    1
     4     2     7    1
     5     3     5    1
     6     4     6    1
