@<TRIPOS>MOLECULE
IMPHY007399
 30 30 0 0 0
SMALL
GASTEIGER

@<TRIPOS>ATOM
      1 C           4.5981   -1.0000    0.0000 C.3     1  UNL1       -0.0531
      2 C           3.7320   -0.5000    0.0000 C.3     1  UNL1       -0.0531
      3 C           2.8660   -1.0000    0.0000 C.3     1  UNL1       -0.0531
      4 C           2.0000   -0.5000    0.0000 C.3     1  UNL1       -0.0531
      5 C           2.0000    0.5000    0.0000 C.3     1  UNL1       -0.0531
      6 C           2.8660    1.0000    0.0000 C.3     1  UNL1       -0.0531
      7 C           3.7320    0.5000    0.0000 C.3     1  UNL1       -0.0531
      8 C           4.5981    1.0000    0.0000 C.3     1  UNL1       -0.0531
      9 C           5.4641    0.5000    0.0000 C.3     1  UNL1       -0.0531
     10 C           5.4641   -0.5000    0.0000 C.3     1  UNL1       -0.0531
     11 H           3.2646    1.4750    0.0000 H       1  UNL1        0.0265
     12 H           2.4675    1.4750    0.0000 H       1  UNL1        0.0265
     13 H           3.3335    0.0251    0.0000 H       1  UNL1        0.0265
     14 H           4.1306    0.0251    0.0000 H       1  UNL1        0.0265
     15 H           4.9966    1.4750    0.0000 H       1  UNL1        0.0265
     16 H           4.1996    1.4750    0.0000 H       1  UNL1        0.0265
     17 H           6.0747    0.3923    0.0000 H       1  UNL1        0.0265
     18 H           5.6762    1.0826    0.0000 H       1  UNL1        0.0265
     19 H           5.6762   -1.0826    0.0000 H       1  UNL1        0.0265
     20 H           6.0747   -0.3923    0.0000 H       1  UNL1        0.0265
     21 H           1.7880    1.0826    0.0000 H       1  UNL1        0.0265
     22 H           1.3894    0.3923    0.0000 H       1  UNL1        0.0265
     23 H           1.3894   -0.3923    0.0000 H       1  UNL1        0.0265
     24 H           1.7880   -1.0826    0.0000 H       1  UNL1        0.0265
     25 H           2.4675   -1.4750    0.0000 H       1  UNL1        0.0265
     26 H           3.2646   -1.4750    0.0000 H       1  UNL1        0.0265
     27 H           4.1306   -0.0251    0.0000 H       1  UNL1        0.0265
     28 H           3.3335   -0.0251    0.0000 H       1  UNL1        0.0265
     29 H           4.1996   -1.4750    0.0000 H       1  UNL1        0.0265
     30 H           4.9966   -1.4750    0.0000 H       1  UNL1        0.0265
@<TRIPOS>BOND
     1     1     2    1
     2     1    10    1
     3     1    29    1
     4     1    30    1
     5     2     3    1
     6     2    27    1
     7     2    28    1
     8     3     4    1
     9     3    25    1
    10     3    26    1
    11     4     5    1
    12     4    23    1
    13     4    24    1
    14     5     6    1
    15     5    21    1
    16     5    22    1
    17     6     7    1
    18     6    11    1
    19     6    12    1
    20     7     8    1
    21     7    13    1
    22     7    14    1
    23     8     9    1
    24     8    15    1
    25     8    16    1
    26     9    10    1
    27     9    17    1
    28     9    18    1
    29    10    19    1
    30    10    20    1
