@<TRIPOS>MOLECULE
IMPHY011261
 56 59 0 0 0
SMALL
GASTEIGER

@<TRIPOS>ATOM
      1 O           5.1350   -2.7836    0.0000 O.3     1  UNL1       -0.3313
      2 O           6.8671   -2.7836    0.0000 O.3     1  UNL1       -0.4535
      3 O           5.1350   -5.7836    0.0000 O.3     1  UNL1       -0.3864
      4 O           3.4030   -4.7836    0.0000 O.3     1  UNL1       -0.3865
      5 O           6.8671   -4.7836    0.0000 O.3     1  UNL1       -0.3829
      6 O           2.5369   -3.2836    0.0000 O.3     1  UNL1       -0.3924
      7 O           6.8510    1.2579    0.0000 O.2     1  UNL1       -0.4543
      8 O           5.1350   -1.7836    0.0000 O.3     1  UNL1       -0.4912
      9 O           8.5991   -1.7836    0.0000 O.3     1  UNL1       -0.5027
     10 O           9.5033   -0.2867    0.0000 O.2     1  UNL1       -0.2869
     11 O           9.4695    4.7923    0.0000 O.3     1  UNL1       -0.5033
     12 O           7.7336    5.7857    0.0000 O.3     1  UNL1       -0.5033
     13 C           5.1350   -4.7836    0.0000 C.3     1  UNL1        0.1152
     14 C           4.2690   -4.2836    0.0000 C.3     1  UNL1        0.1120
     15 C           6.0010   -4.2836    0.0000 C.3     1  UNL1        0.1454
     16 C           4.2690   -3.2836    0.0000 C.3     1  UNL1        0.1140
     17 C           6.0010   -3.2836    0.0000 C.3     1  UNL1        0.2311
     18 C           3.4030   -2.7836    0.0000 C.3     1  UNL1        0.0731
     19 C           6.8671   -1.7836    0.0000 C.ar    1  UNL1        0.2074
     20 C           7.7331   -1.2836    0.0000 C.ar    1  UNL1        0.1769
     21 C           6.0010   -1.2836    0.0000 C.ar    1  UNL1        0.1688
     22 C           7.7331   -0.2836    0.0000 C.ar    1  UNL1        0.1091
     23 C           6.8671    0.2164    0.0000 C.ar    1  UNL1        0.1465
     24 C           6.0010   -0.2836    0.0000 C.ar    1  UNL1        0.0270
     25 C           8.6431    0.2233    0.0000 C.ar    1  UNL1        0.1967
     26 C           7.7490    1.7857    0.0000 C.ar    1  UNL1        0.1393
     27 C           8.6511    1.2649    0.0000 C.ar    1  UNL1        0.0288
     28 C           7.7452    2.7857    0.0000 C.ar    1  UNL1        0.0211
     29 C           4.2690   -1.2836    0.0000 C.3     1  UNL1        0.0790
     30 C           8.6093    3.2890    0.0000 C.ar    1  UNL1       -0.0059
     31 C           6.8772    3.2823    0.0000 C.ar    1  UNL1       -0.0474
     32 C           8.6054    4.2890    0.0000 C.ar    1  UNL1        0.1589
     33 C           6.8734    4.2823    0.0000 C.ar    1  UNL1       -0.0159
     34 C           7.7375    4.7857    0.0000 C.ar    1  UNL1        0.1583
     35 H           5.6720   -5.0936    0.0000 H       1  UNL1        0.0648
     36 H           4.2690   -4.9036    0.0000 H       1  UNL1        0.0647
     37 H           6.5380   -3.9736    0.0000 H       1  UNL1        0.0683
     38 H           4.2690   -2.6636    0.0000 H       1  UNL1        0.0647
     39 H           6.0010   -2.6636    0.0000 H       1  UNL1        0.1084
     40 H           3.8015   -2.3086    0.0000 H       1  UNL1        0.0584
     41 H           3.0044   -2.3086    0.0000 H       1  UNL1        0.0584
     42 H           4.5981   -6.0936    0.0000 H       1  UNL1        0.2100
     43 H           3.4030   -5.4036    0.0000 H       1  UNL1        0.2100
     44 H           6.8671   -5.4036    0.0000 H       1  UNL1        0.2102
     45 H           2.0000   -2.9736    0.0000 H       1  UNL1        0.2095
     46 H           5.4641    0.0264    0.0000 H       1  UNL1        0.0692
     47 H           9.1892    1.5728    0.0000 H       1  UNL1        0.0693
     48 H           8.5991   -2.4036    0.0000 H       1  UNL1        0.2923
     49 H           4.5790   -0.7466    0.0000 H       1  UNL1        0.0660
     50 H           3.7320   -0.9736    0.0000 H       1  UNL1        0.0660
     51 H           3.9590   -1.8205    0.0000 H       1  UNL1        0.0660
     52 H           9.1474    2.9811    0.0000 H       1  UNL1        0.0662
     53 H           6.3415    2.9703    0.0000 H       1  UNL1        0.0626
     54 H           6.3353    4.5902    0.0000 H       1  UNL1        0.0655
     55 H          10.0076    4.4844    0.0000 H       1  UNL1        0.2923
     56 H           7.1955    6.0936    0.0000 H       1  UNL1        0.2923
@<TRIPOS>BOND
     1     1    16    1
     2     1    17    1
     3    17     2    1
     4     2    19    1
     5    13     3    1
     6     3    42    1
     7    14     4    1
     8     4    43    1
     9    15     5    1
    10     5    44    1
    11     6    18    1
    12     6    45    1
    13     7    23   ar
    14     7    26   ar
    15     8    21    1
    16     8    29    1
    17     9    20    1
    18     9    48    1
    19    10    25    2
    20    11    32    1
    21    11    55    1
    22    12    34    1
    23    12    56    1
    24    13    14    1
    25    13    15    1
    26    13    35    1
    27    14    16    1
    28    14    36    1
    29    15    17    1
    30    15    37    1
    31    16    18    1
    32    16    38    1
    33    17    39    1
    34    18    40    1
    35    18    41    1
    36    19    20   ar
    37    19    21   ar
    38    20    22   ar
    39    21    24   ar
    40    22    23   ar
    41    22    25   ar
    42    23    24   ar
    43    24    46    1
    44    25    27   ar
    45    26    27   ar
    46    26    28    1
    47    27    47    1
    48    28    30   ar
    49    28    31   ar
    50    29    49    1
    51    29    50    1
    52    29    51    1
    53    30    32   ar
    54    30    52    1
    55    31    33   ar
    56    31    53    1
    57    32    34   ar
    58    33    34   ar
    59    33    54    1
