@<TRIPOS>MOLECULE
IMPHY015974
 47 46 0 0 0
SMALL
GASTEIGER

@<TRIPOS>ATOM
      1 CL         15.8564   -0.2500    0.0000 Cl      1  UNL1       -0.0924
      2 CL         14.9904    1.2500    0.0000 Cl      1  UNL1       -0.0924
      3 O          13.2583    0.2500    0.0000 O.3     1  UNL1       -0.4628
      4 O          14.1244   -1.2500    0.0000 O.2     1  UNL1       -0.2478
      5 C           7.1962   -0.2500    0.0000 C.3     1  UNL1       -0.0531
      6 C           8.0622    0.2500    0.0000 C.3     1  UNL1       -0.0531
      7 C           6.3301    0.2500    0.0000 C.3     1  UNL1       -0.0531
      8 C           8.9282   -0.2500    0.0000 C.3     1  UNL1       -0.0531
      9 C           5.4641   -0.2500    0.0000 C.3     1  UNL1       -0.0531
     10 C           9.7942    0.2500    0.0000 C.3     1  UNL1       -0.0530
     11 C           4.5981    0.2500    0.0000 C.3     1  UNL1       -0.0531
     12 C          10.6603   -0.2500    0.0000 C.3     1  UNL1       -0.0500
     13 C           3.7320   -0.2500    0.0000 C.3     1  UNL1       -0.0533
     14 C          11.5263    0.2500    0.0000 C.3     1  UNL1       -0.0185
     15 C           2.8660    0.2500    0.0000 C.3     1  UNL1       -0.0559
     16 C          12.3923   -0.2500    0.0000 C.3     1  UNL1        0.0925
     17 C           2.0000   -0.2500    0.0000 C.3     1  UNL1       -0.0653
     18 C          14.1244   -0.2500    0.0000 C.2     1  UNL1        0.3402
     19 C          14.9904    0.2500    0.0000 C.3     1  UNL1        0.2035
     20 H           6.7976   -0.7249    0.0000 H       1  UNL1        0.0265
     21 H           7.5947   -0.7249    0.0000 H       1  UNL1        0.0265
     22 H           8.4607    0.7249    0.0000 H       1  UNL1        0.0265
     23 H           7.6636    0.7249    0.0000 H       1  UNL1        0.0265
     24 H           6.7287    0.7249    0.0000 H       1  UNL1        0.0265
     25 H           5.9316    0.7249    0.0000 H       1  UNL1        0.0265
     26 H           8.5297   -0.7249    0.0000 H       1  UNL1        0.0265
     27 H           9.3267   -0.7249    0.0000 H       1  UNL1        0.0265
     28 H           5.0656   -0.7249    0.0000 H       1  UNL1        0.0265
     29 H           5.8626   -0.7249    0.0000 H       1  UNL1        0.0265
     30 H          10.1928    0.7249    0.0000 H       1  UNL1        0.0265
     31 H           9.3957    0.7249    0.0000 H       1  UNL1        0.0265
     32 H           4.9966    0.7249    0.0000 H       1  UNL1        0.0265
     33 H           4.1996    0.7249    0.0000 H       1  UNL1        0.0265
     34 H          10.2617   -0.7249    0.0000 H       1  UNL1        0.0266
     35 H          11.0588   -0.7249    0.0000 H       1  UNL1        0.0266
     36 H           3.3335   -0.7249    0.0000 H       1  UNL1        0.0265
     37 H           4.1306   -0.7249    0.0000 H       1  UNL1        0.0265
     38 H          11.9248    0.7249    0.0000 H       1  UNL1        0.0298
     39 H          11.1278    0.7249    0.0000 H       1  UNL1        0.0298
     40 H           3.2646    0.7249    0.0000 H       1  UNL1        0.0263
     41 H           2.4675    0.7249    0.0000 H       1  UNL1        0.0263
     42 H          11.9938   -0.7249    0.0000 H       1  UNL1        0.0697
     43 H          12.7908   -0.7249    0.0000 H       1  UNL1        0.0697
     44 H           1.6900    0.2869    0.0000 H       1  UNL1        0.0230
     45 H           1.4631   -0.5600    0.0000 H       1  UNL1        0.0230
     46 H           2.3100   -0.7869    0.0000 H       1  UNL1        0.0230
     47 H          15.5273    0.5600    0.0000 H       1  UNL1        0.0752
@<TRIPOS>BOND
     1     1    19    1
     2     2    19    1
     3     3    16    1
     4     3    18    1
     5     4    18    2
     6     5     6    1
     7     5     7    1
     8     5    20    1
     9     5    21    1
    10     6     8    1
    11     6    22    1
    12     6    23    1
    13     7     9    1
    14     7    24    1
    15     7    25    1
    16     8    10    1
    17     8    26    1
    18     8    27    1
    19     9    11    1
    20     9    28    1
    21     9    29    1
    22    10    12    1
    23    10    30    1
    24    10    31    1
    25    11    13    1
    26    11    32    1
    27    11    33    1
    28    12    14    1
    29    12    34    1
    30    12    35    1
    31    13    15    1
    32    13    36    1
    33    13    37    1
    34    14    16    1
    35    14    38    1
    36    14    39    1
    37    15    17    1
    38    15    40    1
    39    15    41    1
    40    16    42    1
    41    16    43    1
    42    17    44    1
    43    17    45    1
    44    17    46    1
    45    18    19    1
    46    19    47    1
