@<TRIPOS>MOLECULE
IMPHY006825
 108 113 0 0 0
SMALL
GASTEIGER

@<TRIPOS>ATOM
      1 O          10.8828   -2.9820    0.0000 O.3     1  UNL1       -0.4606
      2 O           7.3114    0.1065    0.0000 O.3     1  UNL1       -0.4608
      3 O           5.4679   -3.0029    0.0000 O.3     1  UNL1       -0.4572
      4 O          11.4877    2.9929    0.0000 O.3     1  UNL1       -0.3710
      5 O          14.6193    2.2034    0.0000 O.3     1  UNL1       -0.3891
      6 O          10.0342   -4.4919    0.0000 O.2     1  UNL1       -0.2512
      7 O          13.9660    3.9532    0.0000 O.3     1  UNL1       -0.3864
      8 O           5.5797    0.1399    0.0000 O.2     1  UNL1       -0.2512
      9 O           4.6077   -1.4995    0.0000 O.2     1  UNL1       -0.2450
     10 C           8.2190   -1.4574    0.0000 C.3     1  UNL1        0.0124
     11 C           9.1290   -0.9505    0.0000 C.3     1  UNL1       -0.0195
     12 C           9.9950   -1.4505    0.0000 C.3     1  UNL1        0.0298
     13 C           8.2109   -2.4990    0.0000 C.3     1  UNL1       -0.0201
     14 C          10.8610    0.0495    0.0000 C.3     1  UNL1       -0.0070
     15 C          10.0110   -2.4920    0.0000 C.3     1  UNL1        0.1126
     16 C          10.8610   -0.9505    0.0000 C.2     1  UNL1       -0.0576
     17 C           7.2755   -3.0487    0.0000 C.3     1  UNL1        0.0059
     18 C           9.1130   -3.0198    0.0000 C.3     1  UNL1       -0.0108
     19 C           9.1290    0.0495    0.0000 C.3     1  UNL1       -0.0479
     20 C           7.2921   -0.8933    0.0000 C.3     1  UNL1        0.1123
     21 C           9.9950    0.5495    0.0000 C.3     1  UNL1       -0.0433
     22 C          11.8072    0.3542    0.0000 C.3     1  UNL1       -0.0235
     23 C           6.3359   -2.5062    0.0000 C.3     1  UNL1        0.1121
     24 C           6.3442   -1.4212    0.0000 C.3     1  UNL1        0.0226
     25 C           8.2267   -0.4574    0.0000 C.3     1  UNL1       -0.0556
     26 C          10.8610   -1.9505    0.0000 C.3     1  UNL1       -0.0522
     27 C          12.3908   -0.4505    0.0000 C.3     1  UNL1       -0.0305
     28 C          11.8072   -1.2553    0.0000 C.2     1  UNL1       -0.0833
     29 C          10.8610    1.0495    0.0000 C.3     1  UNL1       -0.0555
     30 C          12.1179    1.3047    0.0000 C.3     1  UNL1       -0.0112
     31 C           6.7788   -3.9166    0.0000 C.3     1  UNL1       -0.0562
     32 C           7.7788   -3.9128    0.0000 C.3     1  UNL1       -0.0562
     33 C          13.1091    1.4372    0.0000 C.3     1  UNL1       -0.0191
     34 C          11.3963    1.9970    0.0000 C.3     1  UNL1        0.0517
     35 C          13.6235    2.2948    0.0000 C.3     1  UNL1        0.0841
     36 C          10.8944   -3.9819    0.0000 C.2     1  UNL1        0.3042
     37 C           6.4552    0.6231    0.0000 C.2     1  UNL1        0.3042
     38 C          13.2737    3.2316    0.0000 C.3     1  UNL1        0.1093
     39 C          12.3232    3.5423    0.0000 C.3     1  UNL1        0.0921
     40 C           4.6038   -2.4995    0.0000 C.2     1  UNL1        0.3395
     41 C          11.7661   -4.4719    0.0000 C.3     1  UNL1        0.0332
     42 C           6.4744    1.6229    0.0000 C.3     1  UNL1        0.0332
     43 C          12.6338    4.4928    0.0000 C.3     1  UNL1       -0.0336
     44 C          11.7737    4.3778    0.0000 C.3     1  UNL1       -0.0336
     45 C           3.7359   -2.9962    0.0000 C.ar    1  UNL1        0.0590
     46 C           2.8718   -2.4928    0.0000 C.ar    1  UNL1       -0.0478
     47 C           3.7320   -3.9962    0.0000 C.ar    1  UNL1       -0.0478
     48 C           2.0038   -2.9895    0.0000 C.ar    1  UNL1       -0.0610
     49 C           2.8641   -4.4928    0.0000 C.ar    1  UNL1       -0.0610
     50 C           2.0000   -3.9895    0.0000 C.ar    1  UNL1       -0.0617
     51 H           9.8651   -0.5255    0.0000 H       1  UNL1        0.0317
     52 H           8.2142   -3.3490    0.0000 H       1  UNL1        0.0315
     53 H          10.0170   -3.1120    0.0000 H       1  UNL1        0.0743
     54 H           8.7157   -3.4958    0.0000 H       1  UNL1        0.0304
     55 H           9.5140   -3.4927    0.0000 H       1  UNL1        0.0304
     56 H           8.9169    0.6321    0.0000 H       1  UNL1        0.0269
     57 H           8.5184   -0.0582    0.0000 H       1  UNL1        0.0269
     58 H           7.8355   -0.5947    0.0000 H       1  UNL1        0.0741
     59 H          10.3935    1.0244    0.0000 H       1  UNL1        0.0274
     60 H           9.5965    1.0244    0.0000 H       1  UNL1        0.0274
     61 H          12.6469    0.4861    0.0000 H       1  UNL1        0.0315
     62 H           6.3347   -3.1262    0.0000 H       1  UNL1        0.0740
     63 H           6.1397   -0.8359    0.0000 H       1  UNL1        0.0337
     64 H           5.7326   -1.5226    0.0000 H       1  UNL1        0.0337
     65 H           8.8466   -0.4622    0.0000 H       1  UNL1        0.0236
     66 H           8.2314    0.1626    0.0000 H       1  UNL1        0.0236
     67 H           7.6067   -0.4526    0.0000 H       1  UNL1        0.0236
     68 H          10.5510   -2.4875    0.0000 H       1  UNL1        0.0239
     69 H          11.3980   -2.2605    0.0000 H       1  UNL1        0.0239
     70 H          11.1710   -1.4136    0.0000 H       1  UNL1        0.0239
     71 H          12.8517   -0.8653    0.0000 H       1  UNL1        0.0310
     72 H          12.8517   -0.0358    0.0000 H       1  UNL1        0.0310
     73 H          11.9998   -1.8446    0.0000 H       1  UNL1        0.0572
     74 H          11.4810    1.0495    0.0000 H       1  UNL1        0.0238
     75 H          10.8610    1.6695    0.0000 H       1  UNL1        0.0238
     76 H          10.2410    1.0495    0.0000 H       1  UNL1        0.0238
     77 H          11.5164    1.1543    0.0000 H       1  UNL1        0.0327
     78 H           6.2407   -3.6087    0.0000 H       1  UNL1        0.0236
     79 H           6.4709   -4.4548    0.0000 H       1  UNL1        0.0236
     80 H           7.3170   -4.2246    0.0000 H       1  UNL1        0.0236
     81 H           7.2431   -4.2248    0.0000 H       1  UNL1        0.0236
     82 H           8.0909   -4.4485    0.0000 H       1  UNL1        0.0236
     83 H           8.3146   -3.6007    0.0000 H       1  UNL1        0.0236
     84 H          13.0524    0.8198    0.0000 H       1  UNL1        0.0294
     85 H          13.6984    1.2446    0.0000 H       1  UNL1        0.0294
     86 H          10.8070    2.1896    0.0000 H       1  UNL1        0.0563
     87 H          11.0774    1.4654    0.0000 H       1  UNL1        0.0563
     88 H          13.9999    2.7874    0.0000 H       1  UNL1        0.0620
     89 H          13.1233    3.8331    0.0000 H       1  UNL1        0.0648
     90 H          11.4623   -5.0124    0.0000 H       1  UNL1        0.0342
     91 H          12.3066   -4.7756    0.0000 H       1  UNL1        0.0342
     92 H          12.0699   -3.9314    0.0000 H       1  UNL1        0.0342
     93 H           7.0943    1.6110    0.0000 H       1  UNL1        0.0342
     94 H           6.4864    2.2428    0.0000 H       1  UNL1        0.0342
     95 H           5.8546    1.6349    0.0000 H       1  UNL1        0.0342
     96 H          14.8789    1.6404    0.0000 H       1  UNL1        0.2099
     97 H          13.2232    4.3002    0.0000 H       1  UNL1        0.0258
     98 H          12.8265    5.0822    0.0000 H       1  UNL1        0.0258
     99 H          12.0445    4.6854    0.0000 H       1  UNL1        0.0258
    100 H          12.2918    4.7185    0.0000 H       1  UNL1        0.0258
    101 H          11.4331    4.8959    0.0000 H       1  UNL1        0.0258
    102 H          11.2557    4.0372    0.0000 H       1  UNL1        0.0258
    103 H          14.5681    3.8052    0.0000 H       1  UNL1        0.2100
    104 H           2.8742   -1.8728    0.0000 H       1  UNL1        0.0626
    105 H           4.2678   -4.3082    0.0000 H       1  UNL1        0.0626
    106 H           1.4681   -2.6774    0.0000 H       1  UNL1        0.0618
    107 H           2.8617   -5.1128    0.0000 H       1  UNL1        0.0618
    108 H           1.4619   -4.2974    0.0000 H       1  UNL1        0.0618
@<TRIPOS>BOND
     1    15     1    1
     2     1    36    1
     3    20     2    1
     4     2    37    1
     5    23     3    1
     6     3    40    1
     7     4    34    1
     8     4    39    1
     9    35     5    1
    10     5    96    1
    11     6    36    2
    12    38     7    1
    13     7   103    1
    14     8    37    2
    15     9    40    2
    16    10    11    1
    17    10    13    1
    18    10    20    1
    19    10    25    1
    20    11    12    1
    21    11    19    1
    22    11    51    1
    23    12    15    1
    24    12    16    1
    25    12    26    1
    26    13    17    1
    27    13    18    1
    28    13    52    1
    29    14    16    1
    30    14    21    1
    31    14    22    1
    32    14    29    1
    33    15    18    1
    34    15    53    1
    35    16    28    2
    36    17    23    1
    37    17    31    1
    38    17    32    1
    39    18    54    1
    40    18    55    1
    41    19    21    1
    42    19    56    1
    43    19    57    1
    44    20    24    1
    45    20    58    1
    46    21    59    1
    47    21    60    1
    48    22    27    1
    49    22    30    1
    50    22    61    1
    51    23    24    1
    52    23    62    1
    53    24    63    1
    54    24    64    1
    55    25    65    1
    56    25    66    1
    57    25    67    1
    58    26    68    1
    59    26    69    1
    60    26    70    1
    61    27    28    1
    62    27    71    1
    63    27    72    1
    64    28    73    1
    65    29    74    1
    66    29    75    1
    67    29    76    1
    68    30    33    1
    69    30    34    1
    70    30    77    1
    71    31    78    1
    72    31    79    1
    73    31    80    1
    74    32    81    1
    75    32    82    1
    76    32    83    1
    77    33    35    1
    78    33    84    1
    79    33    85    1
    80    34    86    1
    81    34    87    1
    82    35    38    1
    83    35    88    1
    84    36    41    1
    85    37    42    1
    86    38    39    1
    87    38    89    1
    88    39    43    1
    89    39    44    1
    90    40    45    1
    91    41    90    1
    92    41    91    1
    93    41    92    1
    94    42    93    1
    95    42    94    1
    96    42    95    1
    97    43    97    1
    98    43    98    1
    99    43    99    1
   100    44   100    1
   101    44   101    1
   102    44   102    1
   103    45    46   ar
   104    45    47   ar
   105    46    48   ar
   106    46   104    1
   107    47    49   ar
   108    47   105    1
   109    48    50   ar
   110    48   106    1
   111    49    50   ar
   112    49   107    1
   113    50   108    1
