@<TRIPOS>MOLECULE
IMPHY005613
 54 55 0 0 0
SMALL
GASTEIGER

@<TRIPOS>ATOM
      1 O           7.2537   -0.8003    0.0000 O.3     1  UNL1       -0.4562
      2 O           8.6550   -1.8183    0.0000 O.2     1  UNL1       -0.2505
      3 O           2.9945   -4.3385    0.0000 O.3     1  UNL1       -0.4647
      4 O           3.1756   -2.6160    0.0000 O.2     1  UNL1       -0.2453
      5 O          10.1016    1.2688    0.0000 O.2     1  UNL1       -0.2922
      6 C           6.9682   -3.5174    0.0000 C.3     1  UNL1       -0.0144
      7 C           6.1591   -2.9296    0.0000 C.3     1  UNL1       -0.0028
      8 C           7.0727   -2.5228    0.0000 C.3     1  UNL1        0.0688
      9 C           6.3804   -4.3264    0.0000 C.3     1  UNL1       -0.0585
     10 C           7.9627   -3.6219    0.0000 C.3     1  UNL1       -0.0585
     11 C           5.1646   -2.8250    0.0000 C.2     1  UNL1       -0.0699
     12 C           7.6605   -1.7138    0.0000 C.2     1  UNL1        0.3119
     13 C           4.5768   -3.6340    0.0000 C.2     1  UNL1        0.0299
     14 C           7.8415    0.0088    0.0000 C.3     1  UNL1        0.1315
     15 C           4.9836   -4.5476    0.0000 C.3     1  UNL1       -0.0332
     16 C           8.8415    0.0088    0.0000 C.3     1  UNL1        0.0512
     17 C           7.5325    0.9598    0.0000 C.2     1  UNL1       -0.0255
     18 C           3.5823   -3.5295    0.0000 C.2     1  UNL1        0.3343
     19 C           8.3415    1.5476    0.0000 C.2     1  UNL1        0.0013
     20 C           9.1505    0.9598    0.0000 C.2     1  UNL1        0.1634
     21 C           6.5814    1.2688    0.0000 C.3     1  UNL1       -0.0397
     22 C           8.3415    2.5476    0.0000 C.3     1  UNL1       -0.0061
     23 C           9.2075    3.0476    0.0000 C.2     1  UNL1       -0.0838
     24 C           2.0000   -4.2340    0.0000 C.3     1  UNL1        0.0820
     25 C           9.2075    4.0476    0.0000 C.2     1  UNL1       -0.0907
     26 C           8.3415    4.5476    0.0000 C.3     1  UNL1       -0.0468
     27 H           6.0622   -2.3172    0.0000 H       1  UNL1        0.0357
     28 H           6.6825   -2.0410    0.0000 H       1  UNL1        0.0425
     29 H           5.8788   -3.9619    0.0000 H       1  UNL1        0.0235
     30 H           6.0159   -4.8280    0.0000 H       1  UNL1        0.0235
     31 H           6.8820   -4.6908    0.0000 H       1  UNL1        0.0235
     32 H           7.8979   -4.2385    0.0000 H       1  UNL1        0.0235
     33 H           8.5793   -3.6867    0.0000 H       1  UNL1        0.0235
     34 H           8.0275   -3.0053    0.0000 H       1  UNL1        0.0235
     35 H           4.9124   -2.2586    0.0000 H       1  UNL1        0.0580
     36 H           8.1230   -0.5437    0.0000 H       1  UNL1        0.0786
     37 H           4.4172   -4.7998    0.0000 H       1  UNL1        0.0280
     38 H           5.2357   -5.1140    0.0000 H       1  UNL1        0.0280
     39 H           5.5500   -4.2954    0.0000 H       1  UNL1        0.0280
     40 H           8.7767   -0.6078    0.0000 H       1  UNL1        0.0385
     41 H           9.4480   -0.1202    0.0000 H       1  UNL1        0.0385
     42 H           6.7730    1.8585    0.0000 H       1  UNL1        0.0276
     43 H           5.9918    1.4604    0.0000 H       1  UNL1        0.0276
     44 H           6.3898    0.6792    0.0000 H       1  UNL1        0.0276
     45 H           8.1295    3.1302    0.0000 H       1  UNL1        0.0357
     46 H           7.7309    2.4399    0.0000 H       1  UNL1        0.0357
     47 H           9.7445    2.7376    0.0000 H       1  UNL1        0.0572
     48 H           2.0648   -3.6174    0.0000 H       1  UNL1        0.0661
     49 H           1.3834   -4.1692    0.0000 H       1  UNL1        0.0661
     50 H           1.9352   -4.8506    0.0000 H       1  UNL1        0.0661
     51 H           9.7445    4.3576    0.0000 H       1  UNL1        0.0566
     52 H           8.6515    5.0845    0.0000 H       1  UNL1        0.0272
     53 H           7.8046    4.8576    0.0000 H       1  UNL1        0.0272
     54 H           8.0315    4.0107    0.0000 H       1  UNL1        0.0272
@<TRIPOS>BOND
     1     1    12    1
     2    14     1    1
     3     2    12    2
     4     3    18    1
     5     3    24    1
     6     4    18    2
     7     5    20    2
     8     6     7    1
     9     6     8    1
    10     6     9    1
    11     6    10    1
    12     7     8    1
    13     7    11    1
    14     7    27    1
    15     8    12    1
    16     8    28    1
    17     9    29    1
    18     9    30    1
    19     9    31    1
    20    10    32    1
    21    10    33    1
    22    10    34    1
    23    11    13    2
    24    11    35    1
    25    13    15    1
    26    13    18    1
    27    14    16    1
    28    14    17    1
    29    14    36    1
    30    15    37    1
    31    15    38    1
    32    15    39    1
    33    16    20    1
    34    16    40    1
    35    16    41    1
    36    17    19    2
    37    17    21    1
    38    19    20    1
    39    19    22    1
    40    21    42    1
    41    21    43    1
    42    21    44    1
    43    22    23    1
    44    22    45    1
    45    22    46    1
    46    23    25    2
    47    23    47    1
    48    24    48    1
    49    24    49    1
    50    24    50    1
    51    25    26    1
    52    25    51    1
    53    26    52    1
    54    26    53    1
    55    26    54    1
