@<TRIPOS>MOLECULE
IMPHY007632
 33 37 0 0 0
SMALL
GASTEIGER

@<TRIPOS>ATOM
      1 O           6.7945    0.9954    0.0000 O.3     1  UNL1       -0.4520
      2 O           6.7945    2.6048    0.0000 O.3     1  UNL1       -0.4526
      3 O           3.2239   -2.3508    0.0000 O.3     1  UNL1       -0.4945
      4 O           2.7072    3.3508    0.0000 O.2     1  UNL1       -0.2698
      5 N           2.6194    1.5953    0.0000 N.am    1  UNL1       -0.2809
      6 C           4.1162    1.3001    0.0000 C.ar    1  UNL1        0.0198
      7 C           4.9822    0.8001    0.0000 C.ar    1  UNL1        0.0379
      8 C           3.2062    0.7932    0.0000 C.ar    1  UNL1        0.0430
      9 C           4.1162    2.3001    0.0000 C.ar    1  UNL1        0.0502
     10 C           4.9983   -0.2414    0.0000 C.ar    1  UNL1       -0.0029
     11 C           5.8482    1.3001    0.0000 C.ar    1  UNL1        0.1746
     12 C           4.1002   -0.7692    0.0000 C.ar    1  UNL1        0.0262
     13 C           3.1982   -0.2484    0.0000 C.ar    1  UNL1       -0.0286
     14 C           5.8482    2.3001    0.0000 C.ar    1  UNL1        0.1676
     15 C           4.9822    2.8001    0.0000 C.ar    1  UNL1       -0.0034
     16 C           3.1332    2.4460    0.0000 C.2     1  UNL1        0.2490
     17 C           5.9502   -0.7620    0.0000 C.ar    1  UNL1       -0.0531
     18 C           4.0919   -1.8541    0.0000 C.ar    1  UNL1        0.1278
     19 C           7.3781    1.8001    0.0000 C.3     1  UNL1        0.2333
     20 C           5.9669   -1.8469    0.0000 C.ar    1  UNL1       -0.0577
     21 C           5.0315   -2.3966    0.0000 C.ar    1  UNL1       -0.0193
     22 C           3.2201   -3.3508    0.0000 C.3     1  UNL1        0.0788
     23 H           2.6600   -0.5563    0.0000 H       1  UNL1        0.0643
     24 H           4.9822    3.4201    0.0000 H       1  UNL1        0.0663
     25 H           2.0000    1.5680    0.0000 H       1  UNL1        0.1552
     26 H           6.4811   -0.4417    0.0000 H       1  UNL1        0.0624
     27 H           7.8390    1.3854    0.0000 H       1  UNL1        0.1166
     28 H           7.8390    2.2148    0.0000 H       1  UNL1        0.1166
     29 H           6.5074   -2.1507    0.0000 H       1  UNL1        0.0619
     30 H           5.0339   -3.0166    0.0000 H       1  UNL1        0.0654
     31 H           2.6001   -3.3484    0.0000 H       1  UNL1        0.0660
     32 H           3.2177   -3.9708    0.0000 H       1  UNL1        0.0660
     33 H           3.8401   -3.3532    0.0000 H       1  UNL1        0.0660
@<TRIPOS>BOND
     1     1    11    1
     2     1    19    1
     3     2    14    1
     4     2    19    1
     5     3    18    1
     6     3    22    1
     7     4    16    2
     8     5     8    1
     9     5    16   am
    10     5    25    1
    11     6     7   ar
    12     6     8   ar
    13     6     9   ar
    14     7    10   ar
    15     7    11   ar
    16     8    13   ar
    17     9    15   ar
    18     9    16    1
    19    10    12   ar
    20    10    17   ar
    21    11    14   ar
    22    12    13   ar
    23    12    18   ar
    24    13    23    1
    25    14    15   ar
    26    15    24    1
    27    17    20   ar
    28    17    26    1
    29    18    21   ar
    30    19    27    1
    31    19    28    1
    32    20    21   ar
    33    20    29    1
    34    21    30    1
    35    22    31    1
    36    22    32    1
    37    22    33    1
