@<TRIPOS>MOLECULE
IMPHY000827
 29 30 0 0 0
SMALL
GASTEIGER

@<TRIPOS>ATOM
      1 O           5.4641   -3.5950    0.0000 O.3     1  UNL1       -0.5066
      2 O           2.0000   -3.5950    0.0000 O.3     1  UNL1       -0.5066
      3 O           4.5981    3.9050    0.0000 O.3     1  UNL1       -0.5068
      4 C           3.7320   -1.5950    0.0000 C.ar    1  UNL1       -0.0181
      5 C           4.5981    0.9050    0.0000 C.ar    1  UNL1       -0.0248
      6 C           3.7320   -0.5950    0.0000 C.2     1  UNL1       -0.0538
      7 C           4.5981   -0.0950    0.0000 C.2     1  UNL1       -0.0540
      8 C           2.8660   -2.0950    0.0000 C.ar    1  UNL1       -0.0128
      9 C           4.5981   -2.0950    0.0000 C.ar    1  UNL1       -0.0128
     10 C           4.5981   -3.0950    0.0000 C.ar    1  UNL1        0.1209
     11 C           2.8660   -3.0950    0.0000 C.ar    1  UNL1        0.1209
     12 C           5.4641    1.4050    0.0000 C.ar    1  UNL1       -0.0511
     13 C           3.7320    1.4050    0.0000 C.ar    1  UNL1       -0.0511
     14 C           3.7320   -3.5950    0.0000 C.ar    1  UNL1        0.0213
     15 C           5.4641    2.4050    0.0000 C.ar    1  UNL1       -0.0196
     16 C           3.7320    2.4050    0.0000 C.ar    1  UNL1       -0.0196
     17 C           4.5981    2.9050    0.0000 C.ar    1  UNL1        0.1169
     18 H           3.1951   -0.2850    0.0000 H       1  UNL1        0.0624
     19 H           5.1350   -0.4050    0.0000 H       1  UNL1        0.0624
     20 H           2.3291   -1.7850    0.0000 H       1  UNL1        0.0660
     21 H           5.1350   -1.7850    0.0000 H       1  UNL1        0.0660
     22 H           6.0010    1.0950    0.0000 H       1  UNL1        0.0625
     23 H           3.1951    1.0950    0.0000 H       1  UNL1        0.0625
     24 H           3.7320   -4.2150    0.0000 H       1  UNL1        0.0691
     25 H           6.0010    2.7150    0.0000 H       1  UNL1        0.0654
     26 H           3.1951    2.7150    0.0000 H       1  UNL1        0.0654
     27 H           5.4641   -4.2150    0.0000 H       1  UNL1        0.2921
     28 H           2.0000   -4.2150    0.0000 H       1  UNL1        0.2921
     29 H           5.1350    4.2150    0.0000 H       1  UNL1        0.2921
@<TRIPOS>BOND
     1     1    10    1
     2     1    27    1
     3     2    11    1
     4     2    28    1
     5     3    17    1
     6     3    29    1
     7     4     6    1
     8     4     8   ar
     9     4     9   ar
    10     5     7    1
    11     5    12   ar
    12     5    13   ar
    13     6     7    2
    14     6    18    1
    15     7    19    1
    16     8    11   ar
    17     8    20    1
    18     9    10   ar
    19     9    21    1
    20    10    14   ar
    21    11    14   ar
    22    12    15   ar
    23    12    22    1
    24    13    16   ar
    25    13    23    1
    26    14    24    1
    27    15    17   ar
    28    15    25    1
    29    16    17   ar
    30    16    26    1
