@<TRIPOS>MOLECULE
IMPHY002342
 16 17 0 0 0
SMALL
GASTEIGER

@<TRIPOS>ATOM
      1 C          -3.2597   -2.0825    0.0000 C.3     1  UNL1        0.0260
      2 C          -0.1428    1.6321    0.0000 C.2     1  UNL1       -0.0067
      3 C           1.9659   -1.2588    0.0000 C.3     1  UNL1        0.0000
      4 C           1.2588   -1.9659    0.0000 C.3     1  UNL1        0.0000
      5 C          -1.6276   -1.9397    0.0000 C.3     1  UNL1        0.0217
      6 C          -2.8356   -0.5000    0.0000 C.2     1  UNL1       -0.0316
      7 C          -0.6428   -1.7660    0.0000 C.3     1  UNL1        0.0046
      8 C          -2.4936    0.4397    0.0000 C.3     1  UNL1        0.0625
      9 C           1.0000    0.0000    0.0000 C.3     1  UNL1        0.0041
     10 C          -2.4936   -1.4397    0.0000 C.2     1  UNL1       -0.0481
     11 C          -0.6428    0.7660    0.0000 C.2     1  UNL1       -0.0145
     12 C           0.0000    0.0000    0.0000 C.3     1  UNL1        0.0207
     13 C           0.0000   -1.0000    0.0000 C.3     1  UNL1        0.0041
     14 C          -1.6276    0.9397    0.0000 C.3     1  UNL1        0.1746
     15 C           1.0000   -1.0000    0.0000 C.3     1  UNL1        0.0006
     16 O          -1.8012    1.9245    0.0000 O.3     1  UNL1       -0.2183
@<TRIPOS>BOND
     1     1    10    1
     2     2    11    2
     3     3    15    1
     4     4    15    1
     5     5     7    1
     6     5    10    1
     7     6     8    1
     8     6    10    2
     9     7    13    1
    10     8    14    1
    11     9    12    1
    12     9    15    1
    13    11    12    1
    14    11    14    1
    15    12    13    1
    16    13    15    1
    17    14    16    1
