@<TRIPOS>MOLECULE
IMPHY007502
 67 71 0 0 0
SMALL
GASTEIGER

@<TRIPOS>ATOM
      1 O           7.9288   -2.0254    0.0000 O.3     1  UNL1       -0.3876
      2 O          10.4586   -0.5254    0.0000 O.3     1  UNL1       -0.4608
      3 O           2.5357   -3.0778    0.0000 O.3     1  UNL1       -0.3918
      4 O           9.1885    2.8479    0.0000 O.3     1  UNL1       -0.4571
      5 O          10.4586   -2.2575    0.0000 O.2     1  UNL1       -0.2512
      6 O          10.9491    3.1236    0.0000 O.2     1  UNL1       -0.2456
      7 C           7.9288   -1.0254    0.0000 C.3     1  UNL1        0.0785
      8 C           7.0628   -1.5254    0.0000 C.3     1  UNL1       -0.0081
      9 C           7.9288   -0.0254    0.0000 C.3     1  UNL1        0.0071
     10 C           6.1968   -1.0254    0.0000 C.3     1  UNL1       -0.0299
     11 C           5.2868   -1.5323    0.0000 C.3     1  UNL1       -0.0259
     12 C           8.8750    0.2793    0.0000 C.3     1  UNL1        0.0290
     13 C           5.2787   -2.5739    0.0000 C.3     1  UNL1       -0.0330
     14 C           7.0628    0.4746    0.0000 C.3     1  UNL1       -0.0441
     15 C           6.1968   -0.0254    0.0000 C.3     1  UNL1       -0.0488
     16 C           8.8750   -1.3302    0.0000 C.3     1  UNL1        0.0147
     17 C           7.0789   -2.5669    0.0000 C.3     1  UNL1       -0.0470
     18 C           9.4586   -0.5254    0.0000 C.3     1  UNL1        0.1128
     19 C           6.1808   -3.0947    0.0000 C.3     1  UNL1       -0.0493
     20 C           4.3599   -0.9682    0.0000 C.3     1  UNL1       -0.0448
     21 C           7.9288    0.9746    0.0000 C.3     1  UNL1       -0.0563
     22 C           4.3433   -3.1236    0.0000 C.3     1  UNL1       -0.0235
     23 C           5.2945   -0.5323    0.0000 C.3     1  UNL1       -0.0590
     24 C           3.4120   -1.4961    0.0000 C.3     1  UNL1       -0.0263
     25 C           3.4037   -2.5811    0.0000 C.3     1  UNL1        0.0555
     26 C           9.1857    1.2298    0.0000 C.2     1  UNL1       -0.0187
     27 C           8.5993    2.0399    0.0000 C.3     1  UNL1        0.1148
     28 C          10.1373    1.5372    0.0000 C.2     1  UNL1        0.0253
     29 C          10.9586   -1.3914    0.0000 C.2     1  UNL1        0.3042
     30 C          10.1390    2.5372    0.0000 C.2     1  UNL1        0.3323
     31 C          11.9586   -1.3914    0.0000 C.3     1  UNL1        0.0332
     32 H           7.8022   -1.9447    0.0000 H       1  UNL1        0.0331
     33 H           6.9329   -0.6004    0.0000 H       1  UNL1        0.0310
     34 H           9.4875    0.3755    0.0000 H       1  UNL1        0.0389
     35 H           5.2820   -3.4239    0.0000 H       1  UNL1        0.0307
     36 H           7.4613    0.9495    0.0000 H       1  UNL1        0.0272
     37 H           6.6643    0.9495    0.0000 H       1  UNL1        0.0272
     38 H           5.9847    0.5572    0.0000 H       1  UNL1        0.0268
     39 H           5.5862   -0.1331    0.0000 H       1  UNL1        0.0268
     40 H           8.6240   -1.8971    0.0000 H       1  UNL1        0.0329
     41 H           9.4124   -1.6394    0.0000 H       1  UNL1        0.0329
     42 H           7.2969   -3.1473    0.0000 H       1  UNL1        0.0269
     43 H           7.6880   -2.4514    0.0000 H       1  UNL1        0.0269
     44 H           9.7404    0.0269    0.0000 H       1  UNL1        0.0741
     45 H           5.7835   -3.5706    0.0000 H       1  UNL1        0.0268
     46 H           6.5818   -3.5676    0.0000 H       1  UNL1        0.0268
     47 H           4.7681   -0.5015    0.0000 H       1  UNL1        0.0271
     48 H           3.9700   -0.4861    0.0000 H       1  UNL1        0.0271
     49 H           8.5488    0.9746    0.0000 H       1  UNL1        0.0236
     50 H           7.9288    1.5946    0.0000 H       1  UNL1        0.0236
     51 H           7.3088    0.9746    0.0000 H       1  UNL1        0.0236
     52 H           3.9460   -3.5996    0.0000 H       1  UNL1        0.0293
     53 H           4.7443   -3.5965    0.0000 H       1  UNL1        0.0293
     54 H           5.9145   -0.5371    0.0000 H       1  UNL1        0.0235
     55 H           5.2993    0.0877    0.0000 H       1  UNL1        0.0235
     56 H           4.6745   -0.5275    0.0000 H       1  UNL1        0.0235
     57 H           3.2075   -0.9108    0.0000 H       1  UNL1        0.0290
     58 H           2.8004   -1.5975    0.0000 H       1  UNL1        0.0290
     59 H           8.4658   -2.3354    0.0000 H       1  UNL1        0.2102
     60 H           2.8686   -2.2680    0.0000 H       1  UNL1        0.0593
     61 H           8.1393    2.4555    0.0000 H       1  UNL1        0.0746
     62 H           8.1378    1.6258    0.0000 H       1  UNL1        0.0746
     63 H          10.6383    1.1719    0.0000 H       1  UNL1        0.0690
     64 H           2.0000   -2.7657    0.0000 H       1  UNL1        0.2098
     65 H          11.9586   -2.0114    0.0000 H       1  UNL1        0.0342
     66 H          12.5786   -1.3914    0.0000 H       1  UNL1        0.0342
     67 H          11.9586   -0.7714    0.0000 H       1  UNL1        0.0342
@<TRIPOS>BOND
     1     7     1    1
     2     1    59    1
     3    18     2    1
     4     2    29    1
     5    25     3    1
     6     3    64    1
     7     4    27    1
     8     4    30    1
     9     5    29    2
    10     6    30    2
    11     7     8    1
    12     7     9    1
    13     7    16    1
    14     8    10    1
    15     8    17    1
    16     8    32    1
    17     9    12    1
    18     9    14    1
    19     9    21    1
    20    10    11    1
    21    10    15    1
    22    10    33    1
    23    11    13    1
    24    11    20    1
    25    11    23    1
    26    12    18    1
    27    12    26    1
    28    12    34    1
    29    13    19    1
    30    13    22    1
    31    13    35    1
    32    14    15    1
    33    14    36    1
    34    14    37    1
    35    15    38    1
    36    15    39    1
    37    16    18    1
    38    16    40    1
    39    16    41    1
    40    17    19    1
    41    17    42    1
    42    17    43    1
    43    18    44    1
    44    19    45    1
    45    19    46    1
    46    20    24    1
    47    20    47    1
    48    20    48    1
    49    21    49    1
    50    21    50    1
    51    21    51    1
    52    22    25    1
    53    22    52    1
    54    22    53    1
    55    23    54    1
    56    23    55    1
    57    23    56    1
    58    24    25    1
    59    24    57    1
    60    24    58    1
    61    25    60    1
    62    26    27    1
    63    26    28    2
    64    27    61    1
    65    27    62    1
    66    28    30    1
    67    28    63    1
    68    29    31    1
    69    31    65    1
    70    31    66    1
    71    31    67    1
