@<TRIPOS>MOLECULE
IMPHY008341
 56 59 0 0 0
SMALL
GASTEIGER

@<TRIPOS>ATOM
      1 O           2.6199    1.2860    0.0000 O.3     1  UNL1       -0.3642
      2 O           3.4629    1.3476    0.0000 O.3     1  UNL1       -0.3642
      3 C           5.8131   -0.1308    0.0000 C.3     1  UNL1       -0.0252
      4 C           4.9446    0.3648    0.0000 C.3     1  UNL1       -0.0248
      5 C           4.0371   -0.1465    0.0000 C.3     1  UNL1        0.0281
      6 C           4.0343   -1.1882    0.0000 C.3     1  UNL1       -0.0253
      7 C           5.7886    1.0505    0.0000 C.3     1  UNL1       -0.0440
      8 C           6.4647    2.0196    0.0000 C.3     1  UNL1       -0.0379
      9 C           6.7422    0.2391    0.0000 C.3     1  UNL1       -0.0442
     10 C           5.8344   -1.1722    0.0000 C.3     1  UNL1       -0.0468
     11 C           4.7906    1.3529    0.0000 C.3     1  UNL1       -0.0488
     12 C           7.0322    1.1962    0.0000 C.3     1  UNL1       -0.0405
     13 C           4.9390   -1.7045    0.0000 C.3     1  UNL1       -0.0485
     14 C           3.1016   -1.7425    0.0000 C.3     1  UNL1       -0.0312
     15 C           3.1075    0.4129    0.0000 C.3     1  UNL1        0.1703
     16 C           5.4672    2.0894    0.0000 C.3     1  UNL1       -0.0497
     17 C           3.6977    0.7941    0.0000 C.3     1  UNL1       -0.0541
     18 C           2.1593   -1.2047    0.0000 C.3     1  UNL1       -0.0427
     19 C           2.1623   -0.1197    0.0000 C.3     1  UNL1        0.0021
     20 C           8.0202    1.3502    0.0000 C.3     1  UNL1       -0.0621
     21 C           2.6093   -2.6130    0.0000 C.3     1  UNL1       -0.0595
     22 C           3.6093   -2.6041    0.0000 C.3     1  UNL1       -0.0595
     23 H           4.1445    0.6517    0.0000 H       1  UNL1        0.0313
     24 H           4.0418   -2.0381    0.0000 H       1  UNL1        0.0313
     25 H           5.4144    1.5448    0.0000 H       1  UNL1        0.0273
     26 H           5.2030    0.8471    0.0000 H       1  UNL1        0.0273
     27 H           6.7112    2.8331    0.0000 H       1  UNL1        0.0304
     28 H           6.8376   -0.3735    0.0000 H       1  UNL1        0.0273
     29 H           7.3606    0.1959    0.0000 H       1  UNL1        0.0273
     30 H           6.0553   -1.7516    0.0000 H       1  UNL1        0.0271
     31 H           6.4429   -1.0537    0.0000 H       1  UNL1        0.0271
     32 H           4.4388    1.8634    0.0000 H       1  UNL1        0.0268
     33 H           4.2146    1.1235    0.0000 H       1  UNL1        0.0268
     34 H           7.2772    1.7657    0.0000 H       1  UNL1        0.0301
     35 H           4.5441   -2.1824    0.0000 H       1  UNL1        0.0268
     36 H           5.3423   -2.1754    0.0000 H       1  UNL1        0.0268
     37 H           5.6469    2.6827    0.0000 H       1  UNL1        0.0268
     38 H           4.9287    2.3967    0.0000 H       1  UNL1        0.0268
     39 H           4.2809    1.0046    0.0000 H       1  UNL1        0.0237
     40 H           3.4872    1.3773    0.0000 H       1  UNL1        0.0237
     41 H           3.1145    0.5836    0.0000 H       1  UNL1        0.0237
     42 H           1.5488   -1.0970    0.0000 H       1  UNL1        0.0272
     43 H           1.9487   -1.7879    0.0000 H       1  UNL1        0.0272
     44 H           1.9548    0.4645    0.0000 H       1  UNL1        0.0317
     45 H           1.5511   -0.2242    0.0000 H       1  UNL1        0.0317
     46 H           8.1157    0.7375    0.0000 H       1  UNL1        0.0233
     47 H           8.6328    1.4456    0.0000 H       1  UNL1        0.0233
     48 H           7.9248    1.9628    0.0000 H       1  UNL1        0.0233
     49 H           2.0697   -2.3077    0.0000 H       1  UNL1        0.0235
     50 H           2.3041   -3.1526    0.0000 H       1  UNL1        0.0235
     51 H           3.1490   -2.9182    0.0000 H       1  UNL1        0.0235
     52 H           3.0751   -2.9188    0.0000 H       1  UNL1        0.0235
     53 H           3.9240   -3.1383    0.0000 H       1  UNL1        0.0235
     54 H           4.1435   -2.2894    0.0000 H       1  UNL1        0.0235
     55 H           3.0712    1.8282    0.0000 H       1  UNL1        0.2128
     56 H           2.0000    1.2949    0.0000 H       1  UNL1        0.2128
@<TRIPOS>BOND
     1     1    15    1
     2     1    56    1
     3     2    15    1
     4     2    55    1
     5     3     4    1
     6     3     7    1
     7     3     9    1
     8     3    10    1
     9     4     5    1
    10     4    11    1
    11     4    23    1
    12     5     6    1
    13     5    15    1
    14     5    17    1
    15     6    13    1
    16     6    14    1
    17     6    24    1
    18     7     8    1
    19     7    25    1
    20     7    26    1
    21     8    12    1
    22     8    16    1
    23     8    27    1
    24     9    12    1
    25     9    28    1
    26     9    29    1
    27    10    13    1
    28    10    30    1
    29    10    31    1
    30    11    16    1
    31    11    32    1
    32    11    33    1
    33    12    20    1
    34    12    34    1
    35    13    35    1
    36    13    36    1
    37    14    18    1
    38    14    21    1
    39    14    22    1
    40    15    19    1
    41    16    37    1
    42    16    38    1
    43    17    39    1
    44    17    40    1
    45    17    41    1
    46    18    19    1
    47    18    42    1
    48    18    43    1
    49    19    44    1
    50    19    45    1
    51    20    46    1
    52    20    47    1
    53    20    48    1
    54    21    49    1
    55    21    50    1
    56    21    51    1
    57    22    52    1
    58    22    53    1
    59    22    54    1
