@<TRIPOS>MOLECULE
IMPHY005188
 74 79 0 0 0
SMALL
GASTEIGER

@<TRIPOS>ATOM
      1 O           3.7998   -3.8744    0.0000 O.3     1  UNL1       -0.3607
      2 O           2.9176   -4.4086    0.0000 O.3     1  UNL1       -0.3848
      3 O           8.7042    0.6144    0.0000 O.3     1  UNL1       -0.3849
      4 O           2.9176   -0.3394    0.0000 O.2     1  UNL1       -0.2920
      5 O           7.4120    2.6299    0.0000 O.3     1  UNL1       -0.4582
      6 O           7.0679    4.3274    0.0000 O.2     1  UNL1       -0.2505
      7 C           5.5321   -1.8740    0.0000 C.3     1  UNL1       -0.0314
      8 C           3.8000   -2.8740    0.0000 C.3     1  UNL1        0.1376
      9 C           4.6660   -1.3740    0.0000 C.3     1  UNL1       -0.0226
     10 C           3.8000   -1.8740    0.0000 C.3     1  UNL1        0.0673
     11 C           6.4421   -1.3671    0.0000 C.3     1  UNL1       -0.0321
     12 C           6.4501   -0.3255    0.0000 C.3     1  UNL1       -0.0234
     13 C           4.6660   -3.3740    0.0000 C.3     1  UNL1        0.0925
     14 C           5.5321   -2.8740    0.0000 C.3     1  UNL1       -0.0203
     15 C           7.4381   -0.0157    0.0000 C.3     1  UNL1       -0.0032
     16 C           4.6500   -0.3325    0.0000 C.3     1  UNL1       -0.0484
     17 C           5.5480    0.1953    0.0000 C.3     1  UNL1       -0.0467
     18 C           7.4252   -1.6921    0.0000 C.3     1  UNL1       -0.0491
     19 C           8.0396   -0.8586    0.0000 C.3     1  UNL1       -0.0467
     20 C           2.9061   -3.4086    0.0000 C.3     1  UNL1        0.1060
     21 C           3.8000   -0.8740    0.0000 C.3     1  UNL1       -0.0494
     22 C           7.7561    0.9324    0.0000 C.3     1  UNL1        0.1033
     23 C           2.9061   -1.3393    0.0000 C.2     1  UNL1        0.1649
     24 C           6.4578    0.6744    0.0000 C.3     1  UNL1       -0.0590
     25 C           2.0000   -2.8948    0.0000 C.2     1  UNL1       -0.0497
     26 C           2.0000   -1.8532    0.0000 C.2     1  UNL1       -0.0200
     27 C           8.0741    1.8805    0.0000 C.3     1  UNL1        0.1318
     28 C           6.8080    1.2504    0.0000 C.3     1  UNL1       -0.0323
     29 C           9.0542    2.0791    0.0000 C.3     1  UNL1       -0.0096
     30 C           9.3721    3.0272    0.0000 C.3     1  UNL1       -0.0278
     31 C           8.7100    3.7767    0.0000 C.3     1  UNL1        0.0563
     32 C           7.7300    3.5780    0.0000 C.2     1  UNL1        0.3105
     33 C          10.3522    3.2259    0.0000 C.3     1  UNL1       -0.0616
     34 C           9.0280    4.7248    0.0000 C.3     1  UNL1       -0.0520
     35 H           6.2649   -2.3046    0.0000 H       1  UNL1        0.0307
     36 H           5.3989   -0.9433    0.0000 H       1  UNL1        0.0314
     37 H           6.5222   -2.2134    0.0000 H       1  UNL1        0.0309
     38 H           5.0911   -4.1100    0.0000 H       1  UNL1        0.0626
     39 H           5.7441   -3.4566    0.0000 H       1  UNL1        0.0294
     40 H           6.1426   -2.7663    0.0000 H       1  UNL1        0.0294
     41 H           8.2788    0.1097    0.0000 H       1  UNL1        0.0335
     42 H           4.4319    0.2479    0.0000 H       1  UNL1        0.0268
     43 H           4.0408   -0.4480    0.0000 H       1  UNL1        0.0268
     44 H           5.9453    0.6713    0.0000 H       1  UNL1        0.0271
     45 H           5.1470    0.6682    0.0000 H       1  UNL1        0.0271
     46 H           7.1698   -2.2571    0.0000 H       1  UNL1        0.0268
     47 H           7.9602   -2.0055    0.0000 H       1  UNL1        0.0268
     48 H           8.4972   -1.2769    0.0000 H       1  UNL1        0.0269
     49 H           8.5036   -0.4475    0.0000 H       1  UNL1        0.0269
     50 H           2.3721   -3.7238    0.0000 H       1  UNL1        0.0668
     51 H           4.4200   -0.8740    0.0000 H       1  UNL1        0.0240
     52 H           3.8000   -0.2540    0.0000 H       1  UNL1        0.0240
     53 H           3.1800   -0.8740    0.0000 H       1  UNL1        0.0240
     54 H           7.0778    0.6697    0.0000 H       1  UNL1        0.0235
     55 H           6.4626    1.2944    0.0000 H       1  UNL1        0.0235
     56 H           5.8378    0.6792    0.0000 H       1  UNL1        0.0235
     57 H           1.4643   -3.2069    0.0000 H       1  UNL1        0.0599
     58 H           1.4643   -1.5411    0.0000 H       1  UNL1        0.0650
     59 H           7.2410    1.7116    0.0000 H       1  UNL1        0.0763
     60 H           7.0052    1.8382    0.0000 H       1  UNL1        0.0259
     61 H           6.2202    1.4475    0.0000 H       1  UNL1        0.0259
     62 H           6.6109    0.6625    0.0000 H       1  UNL1        0.0259
     63 H           2.3843   -4.7248    0.0000 H       1  UNL1        0.2103
     64 H           8.8274    0.0068    0.0000 H       1  UNL1        0.2103
     65 H           9.0699    1.4593    0.0000 H       1  UNL1        0.0305
     66 H           9.6673    1.9871    0.0000 H       1  UNL1        0.0305
     67 H           9.7826    2.5626    0.0000 H       1  UNL1        0.0307
     68 H           9.3177    3.8998    0.0000 H       1  UNL1        0.0413
     69 H          10.4754    2.6183    0.0000 H       1  UNL1        0.0233
     70 H          10.9598    3.3491    0.0000 H       1  UNL1        0.0233
     71 H          10.2290    3.8336    0.0000 H       1  UNL1        0.0233
     72 H           9.6158    4.5276    0.0000 H       1  UNL1        0.0238
     73 H           9.2252    5.3126    0.0000 H       1  UNL1        0.0238
     74 H           8.4402    4.9219    0.0000 H       1  UNL1        0.0238
@<TRIPOS>BOND
     1     8     1    1
     2     1    13    1
     3    20     2    1
     4     2    63    1
     5    22     3    1
     6     3    64    1
     7     4    23    2
     8     5    27    1
     9     5    32    1
    10     6    32    2
    11     7     9    1
    12     7    11    1
    13     7    14    1
    14     7    35    1
    15     8    10    1
    16     8    13    1
    17     8    20    1
    18     9    10    1
    19     9    16    1
    20     9    36    1
    21    10    21    1
    22    10    23    1
    23    11    12    1
    24    11    18    1
    25    11    37    1
    26    12    15    1
    27    12    17    1
    28    12    24    1
    29    13    14    1
    30    13    38    1
    31    14    39    1
    32    14    40    1
    33    15    19    1
    34    15    22    1
    35    15    41    1
    36    16    17    1
    37    16    42    1
    38    16    43    1
    39    17    44    1
    40    17    45    1
    41    18    19    1
    42    18    46    1
    43    18    47    1
    44    19    48    1
    45    19    49    1
    46    20    25    1
    47    20    50    1
    48    21    51    1
    49    21    52    1
    50    21    53    1
    51    22    27    1
    52    22    28    1
    53    23    26    1
    54    24    54    1
    55    24    55    1
    56    24    56    1
    57    25    26    2
    58    25    57    1
    59    26    58    1
    60    27    29    1
    61    27    59    1
    62    28    60    1
    63    28    61    1
    64    28    62    1
    65    29    30    1
    66    29    65    1
    67    29    66    1
    68    30    31    1
    69    30    33    1
    70    30    67    1
    71    31    32    1
    72    31    34    1
    73    31    68    1
    74    33    69    1
    75    33    70    1
    76    33    71    1
    77    34    72    1
    78    34    73    1
    79    34    74    1
