@<TRIPOS>MOLECULE
IMPHY001362
 28 29 0 0 0
SMALL
GASTEIGER

@<TRIPOS>ATOM
      1 O           5.5321   -0.1346    0.0000 O.2     1  UNL1       -0.4222
      2 O           2.9176   -1.6692    0.0000 O.3     1  UNL1       -0.5059
      3 O           4.6660   -1.6346    0.0000 O.2     1  UNL1       -0.2444
      4 C           3.8000    0.8654    0.0000 C.ar    1  UNL1       -0.0040
      5 C           3.8000   -0.1346    0.0000 C.ar    1  UNL1        0.1079
      6 C           4.6660    1.3654    0.0000 C.ar    1  UNL1       -0.0112
      7 C           5.5321    0.8654    0.0000 C.ar    1  UNL1        0.1323
      8 C           2.9061   -0.6693    0.0000 C.ar    1  UNL1        0.1314
      9 C           2.9061    1.4000    0.0000 C.ar    1  UNL1       -0.0535
     10 C           4.6660   -0.6346    0.0000 C.ar    1  UNL1        0.3486
     11 C           6.3981    1.3654    0.0000 C.2     1  UNL1       -0.0231
     12 C           2.0000   -0.1554    0.0000 C.ar    1  UNL1       -0.0193
     13 C           2.0000    0.8862    0.0000 C.ar    1  UNL1       -0.0577
     14 C           8.1301    1.3654    0.0000 C.3     1  UNL1       -0.0372
     15 C           7.2641    0.8654    0.0000 C.2     1  UNL1       -0.0808
     16 C           8.9962    0.8654    0.0000 C.3     1  UNL1       -0.0618
     17 H           4.6660    1.9854    0.0000 H       1  UNL1        0.0660
     18 H           2.9132    2.0200    0.0000 H       1  UNL1        0.0624
     19 H           6.3981    1.9854    0.0000 H       1  UNL1        0.0651
     20 H           1.4643   -0.4675    0.0000 H       1  UNL1        0.0654
     21 H           1.4643    1.1983    0.0000 H       1  UNL1        0.0619
     22 H           8.5287    1.8403    0.0000 H       1  UNL1        0.0305
     23 H           7.7316    1.8403    0.0000 H       1  UNL1        0.0305
     24 H           7.2641    0.2454    0.0000 H       1  UNL1        0.0573
     25 H           8.6862    0.3285    0.0000 H       1  UNL1        0.0233
     26 H           9.5331    0.5554    0.0000 H       1  UNL1        0.0233
     27 H           9.3062    1.4023    0.0000 H       1  UNL1        0.0233
     28 H           2.3843   -1.9854    0.0000 H       1  UNL1        0.2922
@<TRIPOS>BOND
     1     1     7   ar
     2     1    10   ar
     3     2     8    1
     4     2    28    1
     5     3    10    2
     6     4     5   ar
     7     4     6   ar
     8     4     9   ar
     9     5     8   ar
    10     5    10   ar
    11     6     7   ar
    12     6    17    1
    13     7    11    1
    14     8    12   ar
    15     9    13   ar
    16     9    18    1
    17    11    15    2
    18    11    19    1
    19    12    13   ar
    20    12    20    1
    21    13    21    1
    22    14    15    1
    23    14    16    1
    24    14    22    1
    25    14    23    1
    26    15    24    1
    27    16    25    1
    28    16    26    1
    29    16    27    1
