@<TRIPOS>MOLECULE
IMPHY009149
 53 55 0 0 0
SMALL
GASTEIGER

@<TRIPOS>ATOM
      1 O           6.0010   -2.6432    0.0000 O.3     1  UNL1       -0.5065
      2 O           2.5369   -0.6432    0.0000 O.3     1  UNL1       -0.5068
      3 C           6.8671    0.8568    0.0000 C.3     1  UNL1       -0.0220
      4 C           6.8671    1.8568    0.0000 C.3     1  UNL1       -0.0296
      5 C           7.7610    2.3915    0.0000 C.3     1  UNL1       -0.0315
      6 C           6.0010    0.3568    0.0000 C.3     1  UNL1       -0.0104
      7 C           7.7610    0.3221    0.0000 C.3     1  UNL1       -0.0468
      8 C           6.0010    2.3568    0.0000 C.3     1  UNL1       -0.0455
      9 C           8.6671    1.8776    0.0000 C.3     1  UNL1       -0.0476
     10 C           8.6671    0.8360    0.0000 C.3     1  UNL1       -0.0520
     11 C           6.8671   -0.1432    0.0000 C.3     1  UNL1       -0.0587
     12 C           5.1350    1.8568    0.0000 C.3     1  UNL1       -0.0314
     13 C           5.1350    0.8568    0.0000 C.2     1  UNL1       -0.0727
     14 C           8.2510    3.2632    0.0000 C.3     1  UNL1       -0.0595
     15 C           7.2510    3.2516    0.0000 C.3     1  UNL1       -0.0595
     16 C           6.0010   -0.6432    0.0000 C.3     1  UNL1       -0.0171
     17 C           4.2690    0.3568    0.0000 C.2     1  UNL1       -0.0992
     18 C           5.1350   -1.1432    0.0000 C.ar    1  UNL1       -0.0019
     19 C           5.1350   -2.1432    0.0000 C.ar    1  UNL1        0.1203
     20 C           4.2690   -0.6432    0.0000 C.ar    1  UNL1       -0.0135
     21 C           3.4030   -1.1432    0.0000 C.ar    1  UNL1        0.1173
     22 C           4.2690   -2.6432    0.0000 C.ar    1  UNL1       -0.0165
     23 C           3.4030   -2.1432    0.0000 C.ar    1  UNL1       -0.0167
     24 H           6.8605    2.7068    0.0000 H       1  UNL1        0.0311
     25 H           5.4641    0.0468    0.0000 H       1  UNL1        0.0354
     26 H           7.3564   -0.1477    0.0000 H       1  UNL1        0.0271
     27 H           8.1546   -0.1569    0.0000 H       1  UNL1        0.0271
     28 H           6.3996    2.8317    0.0000 H       1  UNL1        0.0271
     29 H           5.6025    2.8317    0.0000 H       1  UNL1        0.0271
     30 H           9.2779    1.7715    0.0000 H       1  UNL1        0.0271
     31 H           8.8761    2.4613    0.0000 H       1  UNL1        0.0271
     32 H           8.8761    0.2523    0.0000 H       1  UNL1        0.0266
     33 H           9.2779    0.9421    0.0000 H       1  UNL1        0.0266
     34 H           6.2471   -0.1432    0.0000 H       1  UNL1        0.0235
     35 H           6.8671   -0.7632    0.0000 H       1  UNL1        0.0235
     36 H           7.4871   -0.1432    0.0000 H       1  UNL1        0.0235
     37 H           4.9230    2.4394    0.0000 H       1  UNL1        0.0310
     38 H           4.5244    1.7491    0.0000 H       1  UNL1        0.0310
     39 H           8.7914    2.9594    0.0000 H       1  UNL1        0.0235
     40 H           8.5547    3.8037    0.0000 H       1  UNL1        0.0235
     41 H           7.7105    3.5670    0.0000 H       1  UNL1        0.0235
     42 H           7.7843    3.5678    0.0000 H       1  UNL1        0.0235
     43 H           6.9348    3.7850    0.0000 H       1  UNL1        0.0235
     44 H           6.7177    2.9354    0.0000 H       1  UNL1        0.0235
     45 H           6.2131   -1.2258    0.0000 H       1  UNL1        0.0320
     46 H           6.6116   -0.5355    0.0000 H       1  UNL1        0.0320
     47 H           3.7320    0.6668    0.0000 H       1  UNL1        0.0534
     48 H           4.2690   -0.2632    0.0000 H       1  UNL1        0.0534
     49 H           4.2690   -0.0232    0.0000 H       1  UNL1        0.0658
     50 H           4.2690   -3.2632    0.0000 H       1  UNL1        0.0655
     51 H           2.8660   -2.4532    0.0000 H       1  UNL1        0.0655
     52 H           6.0010   -3.2632    0.0000 H       1  UNL1        0.2921
     53 H           2.0000   -0.9532    0.0000 H       1  UNL1        0.2921
@<TRIPOS>BOND
     1     1    19    1
     2     1    52    1
     3     2    21    1
     4     2    53    1
     5     3     4    1
     6     3     6    1
     7     3     7    1
     8     3    11    1
     9     4     5    1
    10     4     8    1
    11     4    24    1
    12     5     9    1
    13     5    14    1
    14     5    15    1
    15     6    13    1
    16     6    16    1
    17     6    25    1
    18     7    10    1
    19     7    26    1
    20     7    27    1
    21     8    12    1
    22     8    28    1
    23     8    29    1
    24     9    10    1
    25     9    30    1
    26     9    31    1
    27    10    32    1
    28    10    33    1
    29    11    34    1
    30    11    35    1
    31    11    36    1
    32    12    13    1
    33    12    37    1
    34    12    38    1
    35    13    17    2
    36    14    39    1
    37    14    40    1
    38    14    41    1
    39    15    42    1
    40    15    43    1
    41    15    44    1
    42    16    18    1
    43    16    45    1
    44    16    46    1
    45    17    47    1
    46    17    48    1
    47    18    19   ar
    48    18    20   ar
    49    19    22   ar
    50    20    21   ar
    51    20    49    1
    52    21    23   ar
    53    22    23   ar
    54    22    50    1
    55    23    51    1
