@<TRIPOS>MOLECULE
IMPHY017724
 18 18 0 0 0
SMALL
GASTEIGER

@<TRIPOS>ATOM
      1 O           3.7601   -0.7694    0.0000 O.2     1  UNL1       -0.4649
      2 C           4.5691   -0.1816    0.0000 C.ar    1  UNL1        0.1050
      3 C           5.5202   -0.4907    0.0000 C.3     1  UNL1        0.0027
      4 C           2.9511   -0.1816    0.0000 C.ar    1  UNL1        0.1022
      5 C           4.2601    0.7694    0.0000 C.ar    1  UNL1       -0.0205
      6 C           3.2601    0.7694    0.0000 C.ar    1  UNL1       -0.0207
      7 C           6.2633    0.1785    0.0000 C.3     1  UNL1       -0.0584
      8 C           2.0000   -0.4907    0.0000 C.3     1  UNL1       -0.0064
      9 H           5.2291   -1.0381    0.0000 H       1  UNL1        0.0341
     10 H           6.0087   -0.8724    0.0000 H       1  UNL1        0.0341
     11 H           4.6245    1.2710    0.0000 H       1  UNL1        0.0652
     12 H           2.8956    1.2710    0.0000 H       1  UNL1        0.0652
     13 H           6.6782   -0.2823    0.0000 H       1  UNL1        0.0234
     14 H           6.7240    0.5933    0.0000 H       1  UNL1        0.0234
     15 H           5.8484    0.6392    0.0000 H       1  UNL1        0.0234
     16 H           1.8084    0.0990    0.0000 H       1  UNL1        0.0308
     17 H           1.4103   -0.6822    0.0000 H       1  UNL1        0.0308
     18 H           2.1916   -1.0803    0.0000 H       1  UNL1        0.0308
@<TRIPOS>BOND
     1     1     2   ar
     2     1     4   ar
     3     2     3    1
     4     2     5   ar
     5     3     7    1
     6     3     9    1
     7     3    10    1
     8     4     6   ar
     9     4     8    1
    10     5     6   ar
    11     5    11    1
    12     6    12    1
    13     7    13    1
    14     7    14    1
    15     7    15    1
    16     8    16    1
    17     8    17    1
    18     8    18    1
