@<TRIPOS>MOLECULE
IMPHY006671
 33 35 0 0 0
SMALL
GASTEIGER

@<TRIPOS>ATOM
      1 O           5.5301   -1.1633    0.0000 O.2     1  UNL1       -0.4542
      2 O           2.0000   -1.1875    0.0000 O.3     1  UNL1       -0.4913
      3 O           9.0602   -1.1875    0.0000 O.3     1  UNL1       -0.4949
      4 O           5.5301    1.8367    0.0000 O.2     1  UNL1       -0.2863
      5 O           7.2785    1.8713    0.0000 O.3     1  UNL1       -0.5058
      6 O           2.0000    0.8608    0.0000 O.3     1  UNL1       -0.5033
      7 C           6.3961    0.3367    0.0000 C.ar    1  UNL1        0.1061
      8 C           4.6641    0.3367    0.0000 C.ar    1  UNL1        0.0684
      9 C           6.3961   -0.6633    0.0000 C.ar    1  UNL1        0.1463
     10 C           4.6641   -0.6633    0.0000 C.ar    1  UNL1        0.1430
     11 C           5.5301    0.8367    0.0000 C.ar    1  UNL1        0.2038
     12 C           7.2901    0.8713    0.0000 C.ar    1  UNL1        0.1347
     13 C           3.7702    0.8713    0.0000 C.ar    1  UNL1       -0.0022
     14 C           3.7702   -1.1980    0.0000 C.ar    1  UNL1        0.0267
     15 C           7.2901   -1.1980    0.0000 C.ar    1  UNL1        0.0233
     16 C           2.8641   -0.6841    0.0000 C.ar    1  UNL1        0.1648
     17 C           2.8641    0.3575    0.0000 C.ar    1  UNL1        0.1594
     18 C           8.1962   -0.6841    0.0000 C.ar    1  UNL1        0.1271
     19 C           8.1962    0.3575    0.0000 C.ar    1  UNL1        0.0225
     20 C           2.0038   -2.1875    0.0000 C.3     1  UNL1        0.0790
     21 C           9.9282   -0.6908    0.0000 C.3     1  UNL1        0.0788
     22 H           3.7773    1.4913    0.0000 H       1  UNL1        0.0663
     23 H           3.7773   -1.8179    0.0000 H       1  UNL1        0.0692
     24 H           7.2829   -1.8179    0.0000 H       1  UNL1        0.0691
     25 H           8.7319    0.6696    0.0000 H       1  UNL1        0.0691
     26 H           7.8118    2.1875    0.0000 H       1  UNL1        0.2922
     27 H           2.0024    1.4808    0.0000 H       1  UNL1        0.2923
     28 H           1.3839   -2.1898    0.0000 H       1  UNL1        0.0660
     29 H           2.0062   -2.8075    0.0000 H       1  UNL1        0.0660
     30 H           2.6238   -2.1851    0.0000 H       1  UNL1        0.0660
     31 H          10.2361   -1.2289    0.0000 H       1  UNL1        0.0660
     32 H          10.4663   -0.3829    0.0000 H       1  UNL1        0.0660
     33 H           9.6203   -0.1527    0.0000 H       1  UNL1        0.0660
@<TRIPOS>BOND
     1     1     9   ar
     2     1    10   ar
     3     2    16    1
     4     2    20    1
     5     3    18    1
     6     3    21    1
     7     4    11    2
     8     5    12    1
     9     5    26    1
    10     6    17    1
    11     6    27    1
    12     7     9   ar
    13     7    11   ar
    14     7    12   ar
    15     8    10   ar
    16     8    11   ar
    17     8    13   ar
    18     9    15   ar
    19    10    14   ar
    20    12    19   ar
    21    13    17   ar
    22    13    22    1
    23    14    16   ar
    24    14    23    1
    25    15    18   ar
    26    15    24    1
    27    16    17   ar
    28    18    19   ar
    29    19    25    1
    30    20    28    1
    31    20    29    1
    32    20    30    1
    33    21    31    1
    34    21    32    1
    35    21    33    1
