@<TRIPOS>MOLECULE
IMPHY005045
 61 61 0 0 0
SMALL
GASTEIGER

@<TRIPOS>ATOM
      1 O           8.5991    0.7500    0.0000 O.3     1  UNL1       -0.3917
      2 O           7.7331    2.2500    0.0000 O.3     1  UNL1       -0.3917
      3 O           4.2690    6.2500    0.0000 O.3     1  UNL1       -0.4915
      4 O           2.5369    5.2500    0.0000 O.3     1  UNL1       -0.5033
      5 C           7.7331    0.2500    0.0000 C.3     1  UNL1        0.0576
      6 C           7.7331   -0.7500    0.0000 C.3     1  UNL1       -0.0268
      7 C           8.5991   -1.2500    0.0000 C.3     1  UNL1       -0.0507
      8 C           6.8671    0.7500    0.0000 C.3     1  UNL1       -0.0007
      9 C           8.5991   -2.2500    0.0000 C.3     1  UNL1       -0.0530
     10 C           6.8671    1.7500    0.0000 C.3     1  UNL1        0.0579
     11 C           9.4651   -2.7500    0.0000 C.3     1  UNL1       -0.0531
     12 C           9.4651   -3.7500    0.0000 C.3     1  UNL1       -0.0531
     13 C           6.0010    2.2500    0.0000 C.3     1  UNL1       -0.0228
     14 C          10.3312   -4.2500    0.0000 C.3     1  UNL1       -0.0531
     15 C           6.0010    3.2500    0.0000 C.3     1  UNL1       -0.0252
     16 C          10.3312   -5.2500    0.0000 C.3     1  UNL1       -0.0533
     17 C          11.1972   -5.7500    0.0000 C.3     1  UNL1       -0.0559
     18 C           5.1350    3.7500    0.0000 C.ar    1  UNL1       -0.0436
     19 C          11.1972   -6.7500    0.0000 C.3     1  UNL1       -0.0653
     20 C           5.1350    4.7500    0.0000 C.ar    1  UNL1       -0.0131
     21 C           4.2690    3.2500    0.0000 C.ar    1  UNL1       -0.0549
     22 C           4.2690    5.2500    0.0000 C.ar    1  UNL1        0.1615
     23 C           3.4030    3.7500    0.0000 C.ar    1  UNL1       -0.0163
     24 C           3.4030    4.7500    0.0000 C.ar    1  UNL1        0.1585
     25 C           5.1350    6.7500    0.0000 C.3     1  UNL1        0.0790
     26 H           7.7331    0.8700    0.0000 H       1  UNL1        0.0594
     27 H           7.1225   -0.6423    0.0000 H       1  UNL1        0.0290
     28 H           7.5210   -1.3326    0.0000 H       1  UNL1        0.0290
     29 H           9.2097   -1.3577    0.0000 H       1  UNL1        0.0266
     30 H           8.8112   -0.6674    0.0000 H       1  UNL1        0.0266
     31 H           6.2565    0.8577    0.0000 H       1  UNL1        0.0315
     32 H           6.6550    0.1674    0.0000 H       1  UNL1        0.0315
     33 H           7.9885   -2.1423    0.0000 H       1  UNL1        0.0265
     34 H           8.3871   -2.8326    0.0000 H       1  UNL1        0.0265
     35 H           7.4040    1.4400    0.0000 H       1  UNL1        0.0594
     36 H          10.0757   -2.8577    0.0000 H       1  UNL1        0.0265
     37 H           9.6772   -2.1674    0.0000 H       1  UNL1        0.0265
     38 H           8.8546   -3.6423    0.0000 H       1  UNL1        0.0265
     39 H           9.2531   -4.3326    0.0000 H       1  UNL1        0.0265
     40 H           5.3905    2.3577    0.0000 H       1  UNL1        0.0293
     41 H           5.7890    1.6674    0.0000 H       1  UNL1        0.0293
     42 H          10.9417   -4.3577    0.0000 H       1  UNL1        0.0265
     43 H          10.5432   -3.6674    0.0000 H       1  UNL1        0.0265
     44 H           6.6116    3.1423    0.0000 H       1  UNL1        0.0314
     45 H           6.2131    3.8326    0.0000 H       1  UNL1        0.0314
     46 H           9.7206   -5.1423    0.0000 H       1  UNL1        0.0265
     47 H          10.1191   -5.8326    0.0000 H       1  UNL1        0.0265
     48 H           9.1360    0.4400    0.0000 H       1  UNL1        0.2098
     49 H          11.8078   -5.8577    0.0000 H       1  UNL1        0.0263
     50 H          11.4092   -5.1674    0.0000 H       1  UNL1        0.0263
     51 H           8.2700    1.9400    0.0000 H       1  UNL1        0.2098
     52 H          10.5772   -6.7500    0.0000 H       1  UNL1        0.0230
     53 H          11.1972   -7.3700    0.0000 H       1  UNL1        0.0230
     54 H          11.8172   -6.7500    0.0000 H       1  UNL1        0.0230
     55 H           5.6720    5.0600    0.0000 H       1  UNL1        0.0658
     56 H           4.2690    2.6300    0.0000 H       1  UNL1        0.0621
     57 H           2.8660    3.4400    0.0000 H       1  UNL1        0.0655
     58 H           2.0000    4.9400    0.0000 H       1  UNL1        0.2923
     59 H           5.4450    6.2131    0.0000 H       1  UNL1        0.0660
     60 H           5.6720    7.0600    0.0000 H       1  UNL1        0.0660
     61 H           4.8250    7.2869    0.0000 H       1  UNL1        0.0660
@<TRIPOS>BOND
     1     1     5    1
     2     1    48    1
     3     2    10    1
     4     2    51    1
     5     3    22    1
     6     3    25    1
     7     4    24    1
     8     4    58    1
     9     5     6    1
    10     5     8    1
    11     5    26    1
    12     6     7    1
    13     6    27    1
    14     6    28    1
    15     7     9    1
    16     7    29    1
    17     7    30    1
    18     8    10    1
    19     8    31    1
    20     8    32    1
    21     9    11    1
    22     9    33    1
    23     9    34    1
    24    10    13    1
    25    10    35    1
    26    11    12    1
    27    11    36    1
    28    11    37    1
    29    12    14    1
    30    12    38    1
    31    12    39    1
    32    13    15    1
    33    13    40    1
    34    13    41    1
    35    14    16    1
    36    14    42    1
    37    14    43    1
    38    15    18    1
    39    15    44    1
    40    15    45    1
    41    16    17    1
    42    16    46    1
    43    16    47    1
    44    17    19    1
    45    17    49    1
    46    17    50    1
    47    18    20   ar
    48    18    21   ar
    49    19    52    1
    50    19    53    1
    51    19    54    1
    52    20    22   ar
    53    20    55    1
    54    21    23   ar
    55    21    56    1
    56    22    24   ar
    57    23    24   ar
    58    23    57    1
    59    25    59    1
    60    25    60    1
    61    25    61    1
