@<TRIPOS>MOLECULE
IMPHY006018
 14 13 0 0 0
SMALL
GASTEIGER

@<TRIPOS>ATOM
      1 S           7.1962   -0.5000    0.0000 S.2     1  UNL1        0.0203
      2 N           5.4641    0.5000    0.0000 N.2     1  UNL1       -0.2343
      3 C           3.7320    0.5000    0.0000 C.3     1  UNL1       -0.0147
      4 C           4.5981    0.0000    0.0000 C.3     1  UNL1        0.0529
      5 C           2.8660    0.0000    0.0000 C.2     1  UNL1       -0.0894
      6 C           2.0000    0.5000    0.0000 C.2     1  UNL1       -0.1026
      7 C           6.3301    0.0000    0.0000 C.1     1  UNL1        0.0358
      8 H           4.1306    0.9749    0.0000 H       1  UNL1        0.0325
      9 H           3.3335    0.9749    0.0000 H       1  UNL1        0.0325
     10 H           4.1996   -0.4749    0.0000 H       1  UNL1        0.0519
     11 H           4.9966   -0.4749    0.0000 H       1  UNL1        0.0519
     12 H           2.8660   -0.6200    0.0000 H       1  UNL1        0.0567
     13 H           2.0000    1.1200    0.0000 H       1  UNL1        0.0532
     14 H           1.4631    0.1900    0.0000 H       1  UNL1        0.0532
@<TRIPOS>BOND
     1     1     7    2
     2     2     4    1
     3     2     7    2
     4     3     4    1
     5     3     5    1
     6     3     8    1
     7     3     9    1
     8     4    10    1
     9     4    11    1
    10     5     6    2
    11     5    12    1
    12     6    13    1
    13     6    14    1
