@<TRIPOS>MOLECULE
IMPHY000659
 39 40 0 0 0
SMALL
GASTEIGER

@<TRIPOS>ATOM
      1 O           5.1350   -0.9050    0.0000 O.3     1  UNL1       -0.3313
      2 O           6.8671   -0.9050    0.0000 O.3     1  UNL1       -0.4535
      3 O           5.1350   -3.9050    0.0000 O.3     1  UNL1       -0.3864
      4 O           3.4030   -2.9050    0.0000 O.3     1  UNL1       -0.3865
      5 O           6.8671   -2.9050    0.0000 O.3     1  UNL1       -0.3829
      6 O           2.5369   -1.4050    0.0000 O.3     1  UNL1       -0.3924
      7 O           8.5991    0.0950    0.0000 O.3     1  UNL1       -0.5032
      8 O           5.1350    0.0950    0.0000 O.3     1  UNL1       -0.5032
      9 O           7.7331    3.5950    0.0000 O.3     1  UNL1       -0.4771
     10 O           6.0010    3.5950    0.0000 O.2     1  UNL1       -0.2451
     11 C           5.1350   -2.9050    0.0000 C.3     1  UNL1        0.1152
     12 C           4.2690   -2.4050    0.0000 C.3     1  UNL1        0.1120
     13 C           6.0010   -2.4050    0.0000 C.3     1  UNL1        0.1454
     14 C           4.2690   -1.4050    0.0000 C.3     1  UNL1        0.1140
     15 C           6.0010   -1.4050    0.0000 C.3     1  UNL1        0.2311
     16 C           3.4030   -0.9050    0.0000 C.3     1  UNL1        0.0731
     17 C           6.8671    0.0950    0.0000 C.ar    1  UNL1        0.2063
     18 C           7.7331    0.5950    0.0000 C.ar    1  UNL1        0.1631
     19 C           6.0010    0.5950    0.0000 C.ar    1  UNL1        0.1631
     20 C           7.7331    1.5950    0.0000 C.ar    1  UNL1       -0.0023
     21 C           6.0010    1.5950    0.0000 C.ar    1  UNL1       -0.0023
     22 C           6.8671    2.0950    0.0000 C.ar    1  UNL1        0.0660
     23 C           6.8671    3.0950    0.0000 C.2     1  UNL1        0.3370
     24 H           5.6720   -3.2150    0.0000 H       1  UNL1        0.0648
     25 H           4.2690   -3.0250    0.0000 H       1  UNL1        0.0647
     26 H           6.5380   -2.0950    0.0000 H       1  UNL1        0.0683
     27 H           4.2690   -0.7850    0.0000 H       1  UNL1        0.0647
     28 H           6.0010   -0.7850    0.0000 H       1  UNL1        0.1084
     29 H           3.8015   -0.4301    0.0000 H       1  UNL1        0.0584
     30 H           3.0044   -0.4301    0.0000 H       1  UNL1        0.0584
     31 H           4.5981   -4.2150    0.0000 H       1  UNL1        0.2100
     32 H           3.4030   -3.5250    0.0000 H       1  UNL1        0.2100
     33 H           6.8671   -3.5250    0.0000 H       1  UNL1        0.2102
     34 H           2.0000   -1.0950    0.0000 H       1  UNL1        0.2095
     35 H           8.2700    1.9050    0.0000 H       1  UNL1        0.0663
     36 H           5.4641    1.9050    0.0000 H       1  UNL1        0.0663
     37 H           9.1360    0.4050    0.0000 H       1  UNL1        0.2923
     38 H           4.5981    0.4050    0.0000 H       1  UNL1        0.2923
     39 H           7.7331    4.2150    0.0000 H       1  UNL1        0.2954
@<TRIPOS>BOND
     1     1    14    1
     2     1    15    1
     3    15     2    1
     4     2    17    1
     5    11     3    1
     6     3    31    1
     7    12     4    1
     8     4    32    1
     9    13     5    1
    10     5    33    1
    11     6    16    1
    12     6    34    1
    13     7    18    1
    14     7    37    1
    15     8    19    1
    16     8    38    1
    17     9    23    1
    18     9    39    1
    19    10    23    2
    20    11    12    1
    21    11    13    1
    22    11    24    1
    23    12    14    1
    24    12    25    1
    25    13    15    1
    26    13    26    1
    27    14    16    1
    28    14    27    1
    29    15    28    1
    30    16    29    1
    31    16    30    1
    32    17    18   ar
    33    17    19   ar
    34    18    20   ar
    35    19    21   ar
    36    20    22   ar
    37    20    35    1
    38    21    22   ar
    39    21    36    1
    40    22    23    1
