@<TRIPOS>MOLECULE
IMPHY003211
 34 38 0 0 0
SMALL
GASTEIGER

@<TRIPOS>ATOM
      1 O           6.4642    1.2707    0.0000 O.3     1  UNL1       -0.4520
      2 O           6.4642    2.8802    0.0000 O.3     1  UNL1       -0.4526
      3 O           2.8937   -2.0754    0.0000 O.3     1  UNL1       -0.4944
      4 O           2.0000   -0.4697    0.0000 O.2     1  UNL1       -0.2849
      5 N           2.0367    1.5968    0.0000 N.ar    1  UNL1       -0.2511
      6 C           4.6520    1.0754    0.0000 C.ar    1  UNL1        0.0382
      7 C           3.7860    1.5754    0.0000 C.ar    1  UNL1        0.0227
      8 C           4.6681    0.0339    0.0000 C.ar    1  UNL1        0.0008
      9 C           5.5180    1.5754    0.0000 C.ar    1  UNL1        0.1746
     10 C           3.7860    2.5754    0.0000 C.ar    1  UNL1       -0.0100
     11 C           3.7700   -0.4938    0.0000 C.ar    1  UNL1        0.0732
     12 C           2.8760    1.0686    0.0000 C.ar    1  UNL1        0.1194
     13 C           5.5180    2.5754    0.0000 C.ar    1  UNL1        0.1674
     14 C           2.8680    0.0270    0.0000 C.2     1  UNL1        0.2159
     15 C           4.6520    3.0754    0.0000 C.ar    1  UNL1       -0.0083
     16 C           5.6200   -0.4867    0.0000 C.ar    1  UNL1       -0.0530
     17 C           3.7617   -1.5788    0.0000 C.ar    1  UNL1        0.1315
     18 C           2.9278    3.0724    0.0000 C.ar    1  UNL1       -0.0357
     19 C           7.0479    2.0754    0.0000 C.3     1  UNL1        0.2333
     20 C           5.6367   -1.5716    0.0000 C.ar    1  UNL1       -0.0577
     21 C           4.7013   -2.1213    0.0000 C.ar    1  UNL1       -0.0192
     22 C           2.0623    2.5882    0.0000 C.ar    1  UNL1        0.0290
     23 C           2.8899   -3.0754    0.0000 C.3     1  UNL1        0.0788
     24 H           4.6520    3.6954    0.0000 H       1  UNL1        0.0661
     25 H           6.1508   -0.1664    0.0000 H       1  UNL1        0.0624
     26 H           2.9324    3.6924    0.0000 H       1  UNL1        0.0639
     27 H           7.5087    1.6607    0.0000 H       1  UNL1        0.1166
     28 H           7.5087    2.4902    0.0000 H       1  UNL1        0.1166
     29 H           6.1772   -1.8753    0.0000 H       1  UNL1        0.0619
     30 H           4.7037   -2.7413    0.0000 H       1  UNL1        0.0654
     31 H           1.5316    2.9087    0.0000 H       1  UNL1        0.0830
     32 H           2.2699   -3.0730    0.0000 H       1  UNL1        0.0660
     33 H           2.8875   -3.6954    0.0000 H       1  UNL1        0.0660
     34 H           3.5099   -3.0778    0.0000 H       1  UNL1        0.0660
@<TRIPOS>BOND
     1     1     9    1
     2     1    19    1
     3     2    13    1
     4     2    19    1
     5     3    17    1
     6     3    23    1
     7     4    14    2
     8     5    12   ar
     9     5    22   ar
    10     6     7   ar
    11     6     8    1
    12     6     9   ar
    13     7    10   ar
    14     7    12   ar
    15     8    11   ar
    16     8    16   ar
    17     9    13   ar
    18    10    15   ar
    19    10    18   ar
    20    11    14    1
    21    11    17   ar
    22    12    14    1
    23    13    15   ar
    24    15    24    1
    25    16    20   ar
    26    16    25    1
    27    17    21   ar
    28    18    22   ar
    29    18    26    1
    30    19    27    1
    31    19    28    1
    32    20    21   ar
    33    20    29    1
    34    21    30    1
    35    22    31    1
    36    23    32    1
    37    23    33    1
    38    23    34    1
