@<TRIPOS>MOLECULE
IMPHY009304
 84 88 0 0 0
SMALL
GASTEIGER

@<TRIPOS>ATOM
      1 O          11.1246    2.1786    0.0000 O.3     1  UNL1       -0.3890
      2 O           9.3052    3.2104    0.0000 O.3     1  UNL1       -0.3892
      3 C           6.6507   -1.4658    0.0000 C.3     1  UNL1       -0.0231
      4 C           5.7847   -0.9658    0.0000 C.3     1  UNL1       -0.0230
      5 C           7.5167   -0.9658    0.0000 C.3     1  UNL1       -0.0294
      6 C           7.5167    0.0342    0.0000 C.3     1  UNL1       -0.0253
      7 C           4.8746   -1.4726    0.0000 C.3     1  UNL1       -0.0292
      8 C           8.4106    0.5689    0.0000 C.3     1  UNL1       -0.0272
      9 C           4.8666   -2.5142    0.0000 C.3     1  UNL1       -0.0287
     10 C           9.3167    0.0550    0.0000 C.3     1  UNL1       -0.0236
     11 C           5.7847    0.0342    0.0000 C.3     1  UNL1       -0.0463
     12 C           6.6507    0.5342    0.0000 C.3     1  UNL1       -0.0466
     13 C           6.6667   -2.5073    0.0000 C.3     1  UNL1       -0.0463
     14 C           8.4106   -1.5004    0.0000 C.3     1  UNL1       -0.0487
     15 C           5.7687   -3.0350    0.0000 C.3     1  UNL1       -0.0468
     16 C           9.3167   -0.9866    0.0000 C.3     1  UNL1       -0.0467
     17 C           3.9478   -0.9086    0.0000 C.3     1  UNL1       -0.0440
     18 C           7.5167   -1.9658    0.0000 C.3     1  UNL1       -0.0588
     19 C           4.9186   -0.4658    0.0000 C.3     1  UNL1       -0.0588
     20 C          10.2605    0.5903    0.0000 C.3     1  UNL1       -0.0097
     21 C           8.3856    1.6536    0.0000 C.3     1  UNL1       -0.0206
     22 C           3.9312   -3.0640    0.0000 C.3     1  UNL1       -0.0469
     23 C           7.5167    1.0342    0.0000 C.3     1  UNL1       -0.0590
     24 C           2.9999   -1.4365    0.0000 C.3     1  UNL1       -0.0346
     25 C           2.9916   -2.5215    0.0000 C.3     1  UNL1       -0.0474
     26 C           4.8589   -3.5142    0.0000 C.3     1  UNL1       -0.0593
     27 C          10.2605    1.6753    0.0000 C.3     1  UNL1        0.0841
     28 C           9.3167    2.2105    0.0000 C.3     1  UNL1        0.0816
     29 C          10.1866   -0.4383    0.0000 C.3     1  UNL1       -0.0590
     30 C          11.1246    0.0869    0.0000 C.3     1  UNL1       -0.0595
     31 C           2.0000   -1.4249    0.0000 C.3     1  UNL1       -0.0598
     32 C           2.5100   -0.5647    0.0000 C.3     1  UNL1       -0.0598
     33 H           8.2561   -0.5465    0.0000 H       1  UNL1        0.0312
     34 H           5.6058   -1.9061    0.0000 H       1  UNL1        0.0312
     35 H           9.1401    1.0052    0.0000 H       1  UNL1        0.0312
     36 H           5.5726    0.6168    0.0000 H       1  UNL1        0.0271
     37 H           5.1741   -0.0734    0.0000 H       1  UNL1        0.0271
     38 H           7.0492    1.0092    0.0000 H       1  UNL1        0.0271
     39 H           6.2522    1.0092    0.0000 H       1  UNL1        0.0271
     40 H           6.8848   -3.0877    0.0000 H       1  UNL1        0.0271
     41 H           7.2759   -2.3918    0.0000 H       1  UNL1        0.0271
     42 H           8.0060   -1.9702    0.0000 H       1  UNL1        0.0268
     43 H           8.8043   -1.9795    0.0000 H       1  UNL1        0.0268
     44 H           5.3714   -3.5110    0.0000 H       1  UNL1        0.0271
     45 H           6.1697   -3.5079    0.0000 H       1  UNL1        0.0271
     46 H           9.5258   -1.5703    0.0000 H       1  UNL1        0.0271
     47 H           9.9276   -0.8805    0.0000 H       1  UNL1        0.0271
     48 H           4.3560   -0.4419    0.0000 H       1  UNL1        0.0273
     49 H           3.5579   -0.4265    0.0000 H       1  UNL1        0.0273
     50 H           7.2067   -2.5027    0.0000 H       1  UNL1        0.0235
     51 H           8.0536   -2.2758    0.0000 H       1  UNL1        0.0235
     52 H           7.8267   -1.4288    0.0000 H       1  UNL1        0.0235
     53 H           5.2286    0.0711    0.0000 H       1  UNL1        0.0235
     54 H           4.3817   -0.1558    0.0000 H       1  UNL1        0.0235
     55 H           4.6086   -1.0027    0.0000 H       1  UNL1        0.0235
     56 H          10.7980    0.8992    0.0000 H       1  UNL1        0.0329
     57 H           8.1631    2.2323    0.0000 H       1  UNL1        0.0294
     58 H           7.7773    1.5334    0.0000 H       1  UNL1        0.0294
     59 H           3.5339   -3.5399    0.0000 H       1  UNL1        0.0271
     60 H           4.3322   -3.5368    0.0000 H       1  UNL1        0.0271
     61 H           8.1367    1.0342    0.0000 H       1  UNL1        0.0235
     62 H           7.5167    1.6542    0.0000 H       1  UNL1        0.0235
     63 H           6.8967    1.0342    0.0000 H       1  UNL1        0.0235
     64 H           2.3816   -2.4107    0.0000 H       1  UNL1        0.0271
     65 H           2.7780   -3.1035    0.0000 H       1  UNL1        0.0271
     66 H           4.2389   -3.5094    0.0000 H       1  UNL1        0.0235
     67 H           4.8541   -4.1342    0.0000 H       1  UNL1        0.0235
     68 H           5.4789   -3.5190    0.0000 H       1  UNL1        0.0235
     69 H          10.7980    1.3663    0.0000 H       1  UNL1        0.0622
     70 H           9.8506    2.5257    0.0000 H       1  UNL1        0.0619
     71 H           9.8807   -0.9776    0.0000 H       1  UNL1        0.0235
     72 H          10.7259   -0.7441    0.0000 H       1  UNL1        0.0235
     73 H          10.4924    0.1010    0.0000 H       1  UNL1        0.0235
     74 H          10.8125   -0.4488    0.0000 H       1  UNL1        0.0233
     75 H          11.6603   -0.2251    0.0000 H       1  UNL1        0.0233
     76 H          11.4367    0.6227    0.0000 H       1  UNL1        0.0233
     77 H           2.0072   -0.8050    0.0000 H       1  UNL1        0.0235
     78 H           1.3800   -1.4178    0.0000 H       1  UNL1        0.0235
     79 H           1.9928   -2.0449    0.0000 H       1  UNL1        0.0235
     80 H           3.0505   -0.2610    0.0000 H       1  UNL1        0.0235
     81 H           2.2062   -0.0243    0.0000 H       1  UNL1        0.0235
     82 H           1.9695   -0.8685    0.0000 H       1  UNL1        0.0235
     83 H          11.1222    2.7986    0.0000 H       1  UNL1        0.2099
     84 H           8.7647    3.5142    0.0000 H       1  UNL1        0.2099
@<TRIPOS>BOND
     1    27     1    1
     2     1    83    1
     3    28     2    1
     4     2    84    1
     5     3     4    1
     6     3     5    1
     7     3    13    1
     8     3    18    1
     9     4     7    1
    10     4    11    1
    11     4    19    1
    12     5     6    1
    13     5    14    1
    14     5    33    1
    15     6     8    1
    16     6    12    1
    17     6    23    1
    18     7     9    1
    19     7    17    1
    20     7    34    1
    21     8    10    1
    22     8    21    1
    23     8    35    1
    24     9    15    1
    25     9    22    1
    26     9    26    1
    27    10    16    1
    28    10    20    1
    29    10    29    1
    30    11    12    1
    31    11    36    1
    32    11    37    1
    33    12    38    1
    34    12    39    1
    35    13    15    1
    36    13    40    1
    37    13    41    1
    38    14    16    1
    39    14    42    1
    40    14    43    1
    41    15    44    1
    42    15    45    1
    43    16    46    1
    44    16    47    1
    45    17    24    1
    46    17    48    1
    47    17    49    1
    48    18    50    1
    49    18    51    1
    50    18    52    1
    51    19    53    1
    52    19    54    1
    53    19    55    1
    54    20    27    1
    55    20    30    1
    56    20    56    1
    57    21    28    1
    58    21    57    1
    59    21    58    1
    60    22    25    1
    61    22    59    1
    62    22    60    1
    63    23    61    1
    64    23    62    1
    65    23    63    1
    66    24    25    1
    67    24    31    1
    68    24    32    1
    69    25    64    1
    70    25    65    1
    71    26    66    1
    72    26    67    1
    73    26    68    1
    74    27    28    1
    75    27    69    1
    76    28    70    1
    77    29    71    1
    78    29    72    1
    79    29    73    1
    80    30    74    1
    81    30    75    1
    82    30    76    1
    83    31    77    1
    84    31    78    1
    85    31    79    1
    86    32    80    1
    87    32    81    1
    88    32    82    1
