@<TRIPOS>MOLECULE
IMPHY005451
 58 63 0 0 0
SMALL
GASTEIGER

@<TRIPOS>ATOM
      1 O          13.8904   -0.2643    0.0000 O.2     1  UNL1       -0.4544
      2 O          10.3984    1.7704    0.0000 O.3     1  UNL1       -0.4486
      3 O           6.0682    0.2704    0.0000 O.2     1  UNL1       -0.4544
      4 O          12.1304    2.7704    0.0000 O.3     1  UNL1       -0.5026
      5 O          10.3984   -0.2296    0.0000 O.3     1  UNL1       -0.5031
      6 O          13.8788    2.8050    0.0000 O.2     1  UNL1       -0.2869
      7 O           4.3198   -2.7642    0.0000 O.3     1  UNL1       -0.5058
      8 O           6.0682   -2.7296    0.0000 O.2     1  UNL1       -0.2869
      9 O           2.5381    0.2945    0.0000 O.3     1  UNL1       -0.5065
     10 O          18.2528   -1.7638    0.0000 O.3     1  UNL1       -0.5068
     11 C          12.9965    1.2704    0.0000 C.ar    1  UNL1        0.1092
     12 C          12.9965    0.2704    0.0000 C.ar    1  UNL1        0.1465
     13 C          12.1304    1.7704    0.0000 C.ar    1  UNL1        0.1774
     14 C          11.2644    1.2704    0.0000 C.ar    1  UNL1        0.2116
     15 C          14.7965    0.2496    0.0000 C.ar    1  UNL1        0.1392
     16 C           7.8003    0.2704    0.0000 C.ar    1  UNL1        0.0176
     17 C           6.9343   -0.2296    0.0000 C.ar    1  UNL1        0.1392
     18 C          13.8904    1.8050    0.0000 C.ar    1  UNL1        0.1967
     19 C          12.1304   -0.2296    0.0000 C.ar    1  UNL1        0.0268
     20 C          11.2644    0.2704    0.0000 C.ar    1  UNL1        0.1664
     21 C           5.2022   -1.2296    0.0000 C.ar    1  UNL1        0.1055
     22 C           5.2022   -0.2296    0.0000 C.ar    1  UNL1        0.1462
     23 C          14.7965    1.2912    0.0000 C.ar    1  UNL1        0.0288
     24 C           9.5323    1.2704    0.0000 C.ar    1  UNL1        0.1288
     25 C          15.6606   -0.2538    0.0000 C.ar    1  UNL1        0.0176
     26 C           6.9343   -1.2296    0.0000 C.ar    1  UNL1        0.0288
     27 C           6.0682   -1.7296    0.0000 C.ar    1  UNL1        0.1966
     28 C           8.6663   -0.2296    0.0000 C.ar    1  UNL1       -0.0476
     29 C           7.8003    1.2704    0.0000 C.ar    1  UNL1       -0.0476
     30 C           9.5323    0.2704    0.0000 C.ar    1  UNL1       -0.0187
     31 C           8.6663    1.7704    0.0000 C.ar    1  UNL1       -0.0187
     32 C           4.3083   -1.7643    0.0000 C.ar    1  UNL1        0.1347
     33 C           4.3083    0.3051    0.0000 C.ar    1  UNL1        0.0231
     34 C           3.4022   -0.2088    0.0000 C.ar    1  UNL1        0.1239
     35 C           3.4022   -1.2504    0.0000 C.ar    1  UNL1        0.0223
     36 C          15.6567   -1.2538    0.0000 C.ar    1  UNL1       -0.0476
     37 C          16.5285    0.2429    0.0000 C.ar    1  UNL1       -0.0476
     38 C          16.5208   -1.7571    0.0000 C.ar    1  UNL1       -0.0195
     39 C          17.3926   -0.2604    0.0000 C.ar    1  UNL1       -0.0195
     40 C          17.3887   -1.2604    0.0000 C.ar    1  UNL1        0.1169
     41 H          12.1304   -0.8496    0.0000 H       1  UNL1        0.0692
     42 H          15.3322    1.6033    0.0000 H       1  UNL1        0.0693
     43 H           7.4712   -1.5396    0.0000 H       1  UNL1        0.0693
     44 H           8.6663   -0.8496    0.0000 H       1  UNL1        0.0626
     45 H           7.2634    1.5804    0.0000 H       1  UNL1        0.0626
     46 H          10.0693   -0.0396    0.0000 H       1  UNL1        0.0654
     47 H           8.6663    2.3904    0.0000 H       1  UNL1        0.0654
     48 H           4.3154    0.9250    0.0000 H       1  UNL1        0.0691
     49 H           2.8665   -1.5625    0.0000 H       1  UNL1        0.0691
     50 H          15.1186   -1.5617    0.0000 H       1  UNL1        0.0626
     51 H          16.5309    0.8629    0.0000 H       1  UNL1        0.0626
     52 H          11.5935    3.0804    0.0000 H       1  UNL1        0.2923
     53 H          16.5184   -2.3771    0.0000 H       1  UNL1        0.0654
     54 H          17.9307    0.0475    0.0000 H       1  UNL1        0.0654
     55 H          10.3984   -0.8496    0.0000 H       1  UNL1        0.2923
     56 H           3.7865   -3.0804    0.0000 H       1  UNL1        0.2922
     57 H           2.0000   -0.0134    0.0000 H       1  UNL1        0.2921
     58 H          18.7910   -1.4558    0.0000 H       1  UNL1        0.2921
@<TRIPOS>BOND
     1     1    12   ar
     2     1    15   ar
     3     2    14    1
     4     2    24    1
     5     3    17   ar
     6     3    22   ar
     7     4    13    1
     8     4    52    1
     9     5    20    1
    10     5    55    1
    11     6    18    2
    12     7    32    1
    13     7    56    1
    14     8    27    2
    15     9    34    1
    16     9    57    1
    17    10    40    1
    18    10    58    1
    19    11    12   ar
    20    11    13   ar
    21    11    18   ar
    22    12    19   ar
    23    13    14   ar
    24    14    20   ar
    25    15    23   ar
    26    15    25    1
    27    16    17    1
    28    16    28   ar
    29    16    29   ar
    30    17    26   ar
    31    18    23   ar
    32    19    20   ar
    33    19    41    1
    34    21    22   ar
    35    21    27   ar
    36    21    32   ar
    37    22    33   ar
    38    23    42    1
    39    24    30   ar
    40    24    31   ar
    41    25    36   ar
    42    25    37   ar
    43    26    27   ar
    44    26    43    1
    45    28    30   ar
    46    28    44    1
    47    29    31   ar
    48    29    45    1
    49    30    46    1
    50    31    47    1
    51    32    35   ar
    52    33    34   ar
    53    33    48    1
    54    34    35   ar
    55    35    49    1
    56    36    38   ar
    57    36    50    1
    58    37    39   ar
    59    37    51    1
    60    38    40   ar
    61    38    53    1
    62    39    40   ar
    63    39    54    1
