@<TRIPOS>MOLECULE
IMPHY017310
 29 28 0 0 0
SMALL
GASTEIGER

@<TRIPOS>ATOM
      1 O           2.8660    0.2500    0.0000 O.3     1  UNL1       -0.4679
      2 O           3.7320   -1.2500    0.0000 O.2     1  UNL1       -0.2509
      3 C           7.1962   -0.2500    0.0000 C.3     1  UNL1       -0.0507
      4 C           8.0622    0.2500    0.0000 C.3     1  UNL1       -0.0467
      5 C           6.3301    0.2500    0.0000 C.3     1  UNL1       -0.0523
      6 C           5.4641   -0.2500    0.0000 C.3     1  UNL1       -0.0430
      7 C           8.9282   -0.2500    0.0000 C.3     1  UNL1       -0.0627
      8 C           8.0622    1.2500    0.0000 C.3     1  UNL1       -0.0627
      9 C           4.5981    0.2500    0.0000 C.3     1  UNL1        0.0449
     10 C           3.7320   -0.2500    0.0000 C.2     1  UNL1        0.3068
     11 C           2.0000   -0.2500    0.0000 C.3     1  UNL1        0.0817
     12 H           6.7976   -0.7249    0.0000 H       1  UNL1        0.0268
     13 H           7.5947   -0.7249    0.0000 H       1  UNL1        0.0268
     14 H           8.0622   -0.3700    0.0000 H       1  UNL1        0.0295
     15 H           6.7287    0.7249    0.0000 H       1  UNL1        0.0265
     16 H           5.9316    0.7249    0.0000 H       1  UNL1        0.0265
     17 H           5.0656   -0.7249    0.0000 H       1  UNL1        0.0270
     18 H           5.8626   -0.7249    0.0000 H       1  UNL1        0.0270
     19 H           8.6182   -0.7869    0.0000 H       1  UNL1        0.0232
     20 H           9.4651   -0.5600    0.0000 H       1  UNL1        0.0232
     21 H           9.2382    0.2869    0.0000 H       1  UNL1        0.0232
     22 H           8.6822    1.2500    0.0000 H       1  UNL1        0.0232
     23 H           8.0622    1.8700    0.0000 H       1  UNL1        0.0232
     24 H           7.4422    1.2500    0.0000 H       1  UNL1        0.0232
     25 H           4.9966    0.7249    0.0000 H       1  UNL1        0.0377
     26 H           4.1996    0.7249    0.0000 H       1  UNL1        0.0377
     27 H           1.6900    0.2869    0.0000 H       1  UNL1        0.0661
     28 H           1.4631   -0.5600    0.0000 H       1  UNL1        0.0661
     29 H           2.3100   -0.7869    0.0000 H       1  UNL1        0.0661
@<TRIPOS>BOND
     1     1    10    1
     2     1    11    1
     3     2    10    2
     4     3     4    1
     5     3     5    1
     6     3    12    1
     7     3    13    1
     8     4     7    1
     9     4     8    1
    10     4    14    1
    11     5     6    1
    12     5    15    1
    13     5    16    1
    14     6     9    1
    15     6    17    1
    16     6    18    1
    17     7    19    1
    18     7    20    1
    19     7    21    1
    20     8    22    1
    21     8    23    1
    22     8    24    1
    23     9    10    1
    24     9    25    1
    25     9    26    1
    26    11    27    1
    27    11    28    1
    28    11    29    1
