@<TRIPOS>MOLECULE
IMPHY003637
 79 83 0 0 0
SMALL
GASTEIGER

@<TRIPOS>ATOM
      1 O           2.0000   -3.1815    0.0000 O.2     1  UNL1       -0.2971
      2 C           5.5301   -1.1574    0.0000 C.3     1  UNL1       -0.0194
      3 C           4.6641   -1.6574    0.0000 C.3     1  UNL1       -0.0189
      4 C           4.6638   -0.6569    0.0000 C.3     1  UNL1       -0.0401
      5 C           6.3961   -1.6574    0.0000 C.3     1  UNL1       -0.0289
      6 C           7.3062   -1.1505    0.0000 C.3     1  UNL1       -0.0231
      7 C           4.6641   -2.6574    0.0000 C.3     1  UNL1       -0.0256
      8 C           5.5141   -0.1159    0.0000 C.3     1  UNL1       -0.0460
      9 C           7.3142   -0.1089    0.0000 C.3     1  UNL1       -0.0233
     10 C           3.7702   -1.1227    0.0000 C.3     1  UNL1       -0.0399
     11 C           6.3961   -2.6574    0.0000 C.3     1  UNL1       -0.0489
     12 C           6.4121    0.4119    0.0000 C.3     1  UNL1       -0.0463
     13 C           5.5301   -3.1574    0.0000 C.3     1  UNL1       -0.0488
     14 C           8.3022    0.2009    0.0000 C.3     1  UNL1       -0.0325
     15 C           8.2893   -1.4755    0.0000 C.3     1  UNL1       -0.0466
     16 C           3.7702   -3.1920    0.0000 C.3     1  UNL1        0.0180
     17 C           8.9036   -0.6420    0.0000 C.3     1  UNL1       -0.0489
     18 C           7.2984   -2.1505    0.0000 C.3     1  UNL1       -0.0588
     19 C           2.8641   -1.6365    0.0000 C.3     1  UNL1        0.0066
     20 C           7.3219    0.8911    0.0000 C.3     1  UNL1       -0.0588
     21 C           2.8641   -2.6782    0.0000 C.2     1  UNL1        0.1365
     22 C           8.6202    1.1490    0.0000 C.3     1  UNL1       -0.0405
     23 C           3.7817   -4.1920    0.0000 C.3     1  UNL1       -0.0554
     24 C           9.6003    1.3477    0.0000 C.3     1  UNL1       -0.0497
     25 C           7.9581    1.8984    0.0000 C.3     1  UNL1       -0.0621
     26 C           9.9182    2.2958    0.0000 C.3     1  UNL1       -0.0465
     27 C          10.8983    2.4944    0.0000 C.3     1  UNL1       -0.0232
     28 C          11.5604    1.7450    0.0000 C.3     1  UNL1       -0.0587
     29 C          11.2163    3.4425    0.0000 C.2     1  UNL1       -0.0769
     30 C          12.1964    3.6412    0.0000 C.3     1  UNL1       -0.0438
     31 C          10.5542    4.1920    0.0000 C.2     1  UNL1       -0.0995
     32 H           4.8759   -0.0743    0.0000 H       1  UNL1        0.0276
     33 H           4.0532   -0.5493    0.0000 H       1  UNL1        0.0276
     34 H           7.1290   -2.0880    0.0000 H       1  UNL1        0.0312
     35 H           4.6706   -3.5073    0.0000 H       1  UNL1        0.0313
     36 H           5.2960    0.4645    0.0000 H       1  UNL1        0.0271
     37 H           4.9049   -0.2314    0.0000 H       1  UNL1        0.0271
     38 H           4.1748   -0.6529    0.0000 H       1  UNL1        0.0275
     39 H           3.3765   -0.6437    0.0000 H       1  UNL1        0.0275
     40 H           6.6082   -3.2400    0.0000 H       1  UNL1        0.0268
     41 H           7.0067   -2.5497    0.0000 H       1  UNL1        0.0268
     42 H           6.8094    0.8879    0.0000 H       1  UNL1        0.0271
     43 H           6.0111    0.8848    0.0000 H       1  UNL1        0.0271
     44 H           5.1316   -3.6323    0.0000 H       1  UNL1        0.0268
     45 H           5.9286   -3.6323    0.0000 H       1  UNL1        0.0268
     46 H           9.1429    0.3263    0.0000 H       1  UNL1        0.0309
     47 H           8.0339   -2.0405    0.0000 H       1  UNL1        0.0271
     48 H           8.8243   -1.7889    0.0000 H       1  UNL1        0.0271
     49 H           3.2362   -3.5072    0.0000 H       1  UNL1        0.0377
     50 H           9.3613   -1.0603    0.0000 H       1  UNL1        0.0268
     51 H           9.3677   -0.2308    0.0000 H       1  UNL1        0.0268
     52 H           6.6785   -2.1457    0.0000 H       1  UNL1        0.0235
     53 H           7.2937   -2.7705    0.0000 H       1  UNL1        0.0235
     54 H           7.9184   -2.1553    0.0000 H       1  UNL1        0.0235
     55 H           2.6550   -1.0528    0.0000 H       1  UNL1        0.0342
     56 H           2.2532   -1.7426    0.0000 H       1  UNL1        0.0342
     57 H           7.9419    0.8863    0.0000 H       1  UNL1        0.0235
     58 H           7.3267    1.5110    0.0000 H       1  UNL1        0.0235
     59 H           6.7019    0.8958    0.0000 H       1  UNL1        0.0235
     60 H           8.8173    1.7368    0.0000 H       1  UNL1        0.0301
     61 H           3.1618   -4.1991    0.0000 H       1  UNL1        0.0236
     62 H           3.7889   -4.8119    0.0000 H       1  UNL1        0.0236
     63 H           4.4017   -4.1848    0.0000 H       1  UNL1        0.0236
     64 H           9.6160    0.7279    0.0000 H       1  UNL1        0.0268
     65 H          10.2134    1.2556    0.0000 H       1  UNL1        0.0268
     66 H           8.4228    2.3089    0.0000 H       1  UNL1        0.0233
     67 H           7.5476    2.3631    0.0000 H       1  UNL1        0.0233
     68 H           7.4935    1.4879    0.0000 H       1  UNL1        0.0233
     69 H           9.9024    2.9156    0.0000 H       1  UNL1        0.0271
     70 H           9.3051    2.3878    0.0000 H       1  UNL1        0.0271
     71 H          10.7012    1.9066    0.0000 H       1  UNL1        0.0343
     72 H          11.0957    1.3345    0.0000 H       1  UNL1        0.0235
     73 H          11.9709    1.2804    0.0000 H       1  UNL1        0.0235
     74 H          12.0250    2.1555    0.0000 H       1  UNL1        0.0235
     75 H          12.3195    3.0336    0.0000 H       1  UNL1        0.0274
     76 H          12.8040    3.7644    0.0000 H       1  UNL1        0.0274
     77 H          12.0732    4.2488    0.0000 H       1  UNL1        0.0274
     78 H          10.7513    4.7798    0.0000 H       1  UNL1        0.0534
     79 H           9.9466    4.0688    0.0000 H       1  UNL1        0.0534
@<TRIPOS>BOND
     1     1    21    2
     2     2     3    1
     3     2     4    1
     4     2     5    1
     5     2     8    1
     6     3     4    1
     7     3     7    1
     8     3    10    1
     9     4    32    1
    10     4    33    1
    11     5     6    1
    12     5    11    1
    13     5    34    1
    14     6     9    1
    15     6    15    1
    16     6    18    1
    17     7    13    1
    18     7    16    1
    19     7    35    1
    20     8    12    1
    21     8    36    1
    22     8    37    1
    23     9    12    1
    24     9    14    1
    25     9    20    1
    26    10    19    1
    27    10    38    1
    28    10    39    1
    29    11    13    1
    30    11    40    1
    31    11    41    1
    32    12    42    1
    33    12    43    1
    34    13    44    1
    35    13    45    1
    36    14    17    1
    37    14    22    1
    38    14    46    1
    39    15    17    1
    40    15    47    1
    41    15    48    1
    42    16    21    1
    43    16    23    1
    44    16    49    1
    45    17    50    1
    46    17    51    1
    47    18    52    1
    48    18    53    1
    49    18    54    1
    50    19    21    1
    51    19    55    1
    52    19    56    1
    53    20    57    1
    54    20    58    1
    55    20    59    1
    56    22    24    1
    57    22    25    1
    58    22    60    1
    59    23    61    1
    60    23    62    1
    61    23    63    1
    62    24    26    1
    63    24    64    1
    64    24    65    1
    65    25    66    1
    66    25    67    1
    67    25    68    1
    68    26    27    1
    69    26    69    1
    70    26    70    1
    71    27    28    1
    72    27    29    1
    73    27    71    1
    74    28    72    1
    75    28    73    1
    76    28    74    1
    77    29    30    1
    78    29    31    2
    79    30    75    1
    80    30    76    1
    81    30    77    1
    82    31    78    1
    83    31    79    1
