@<TRIPOS>MOLECULE
IMPHY010749
 43 48 0 0 0
SMALL
GASTEIGER

@<TRIPOS>ATOM
      1 C           9.2106   -3.3389    0.0000 C.3     1  UNL1        0.1380
      2 C           8.0593   -3.9951    0.0000 C.3     1  UNL1        0.0574
      3 C           6.9080   -3.3389    0.0000 C.ar    1  UNL1       -0.0138
      4 C           5.7451   -3.9951    0.0000 C.ar    1  UNL1       -0.0037
      5 C           4.5938   -3.3389    0.0000 C.ar    1  UNL1        0.0089
      6 C           4.5938   -2.0033    0.0000 C.ar    1  UNL1        0.0778
      7 C           3.4540   -1.3355    0.0000 C.ar    1  UNL1        0.1976
      8 C           2.3027   -2.0033    0.0000 C.ar    1  UNL1        0.0511
      9 C           2.3027   -3.3389    0.0000 C.ar    1  UNL1        0.1378
     10 C           3.4540   -3.9951    0.0000 C.ar    1  UNL1        0.0369
     11 C           9.2106   -2.0033    0.0000 C.3     1  UNL1        0.0999
     12 C           8.0593   -1.3355    0.0000 C.2     1  UNL1        0.1783
     13 C           6.9080   -2.0033    0.0000 C.ar    1  UNL1        0.0699
     14 C           5.7451   -1.3355    0.0000 C.ar    1  UNL1        0.2011
     15 O           9.8784   -4.4787    0.0000 O.3     1  UNL1       -0.2249
     16 C          10.5347   -3.3389    0.0000 C.3     1  UNL1        0.0337
     17 C           5.7451   -5.3191    0.0000 C.ar    1  UNL1       -0.0037
     18 C           6.9080   -5.9984    0.0000 C.ar    1  UNL1        0.0089
     19 C           6.9080   -7.3225    0.0000 C.ar    1  UNL1        0.0781
     20 C           5.7451   -7.9787    0.0000 C.ar    1  UNL1        0.2011
     21 C           4.5938   -7.3225    0.0000 C.ar    1  UNL1        0.0699
     22 C           3.4540   -7.9787    0.0000 C.2     1  UNL1        0.1783
     23 C           2.3027   -7.3225    0.0000 C.3     1  UNL1        0.0999
     24 C           2.3027   -5.9984    0.0000 C.3     1  UNL1        0.1380
     25 C           3.4540   -5.3191    0.0000 C.3     1  UNL1        0.0574
     26 C           4.5938   -5.9984    0.0000 C.ar    1  UNL1       -0.0138
     27 C           8.0593   -5.3191    0.0000 C.ar    1  UNL1        0.0372
     28 C           9.2106   -5.9984    0.0000 C.ar    1  UNL1        0.1419
     29 C           9.2106   -7.3225    0.0000 C.ar    1  UNL1        0.0790
     30 C           8.0593   -7.9787    0.0000 C.ar    1  UNL1        0.2018
     31 O           3.4540    0.0000    0.0000 O.3     1  UNL1       -0.2867
     32 C           1.1513   -1.3355    0.0000 C.3     1  UNL1        0.0376
     33 O           1.1513   -3.9951    0.0000 O.3     1  UNL1       -0.4716
     34 C           0.0000   -3.3389    0.0000 C.3     1  UNL1        0.2525
     35 O           8.0593    0.0000    0.0000 O.2     1  UNL1       -0.2912
     36 O           5.7451    0.0000    0.0000 O.3     1  UNL1       -0.2864
     37 O           5.7451   -9.3143    0.0000 O.3     1  UNL1       -0.2864
     38 O           3.4540   -9.3143    0.0000 O.2     1  UNL1       -0.2912
     39 O           1.6349   -4.8471    0.0000 O.3     1  UNL1       -0.2249
     40 C           0.9786   -5.9984    0.0000 C.3     1  UNL1        0.0337
     41 O          10.3620   -5.3191    0.0000 O.3     1  UNL1       -0.4713
     42 C          11.5133   -5.9984    0.0000 C.3     1  UNL1        0.2525
     43 O           8.0593   -9.3143    0.0000 O.3     1  UNL1       -0.2864
@<TRIPOS>BOND
     1     1    11    1
     2     1     2    1
     3     1    15    1
     4     1    16    1
     5     2     3    1
     6     3    13   ar
     7     3     4   ar
     8     4     5   ar
     9     4    17    1
    10     5     6   ar
    11     5    10   ar
    12     6     7   ar
    13     6    14   ar
    14     7     8   ar
    15     7    31    1
    16     8     9   ar
    17     8    32    1
    18     9    10   ar
    19     9    33    1
    20    11    12    1
    21    12    13    1
    22    12    35    2
    23    13    14   ar
    24    14    36    1
    25    17    18   ar
    26    17    26   ar
    27    18    27   ar
    28    18    19   ar
    29    19    20   ar
    30    19    30   ar
    31    20    21   ar
    32    20    37    1
    33    21    26   ar
    34    21    22    1
    35    22    23    1
    36    22    38    2
    37    23    24    1
    38    24    25    1
    39    24    40    1
    40    24    39    1
    41    25    26    1
    42    27    28   ar
    43    28    29   ar
    44    28    41    1
    45    29    30   ar
    46    30    43    1
    47    33    34    1
    48    41    42    1
