@<TRIPOS>MOLECULE
IMPHY013602
 32 34 0 0 0
SMALL
GASTEIGER

@<TRIPOS>ATOM
      1 O           2.3660    0.8170    0.0000 O.3     1  UNL1       -0.3602
      2 O           3.3660   -1.1830    0.0000 O.3     1  UNL1       -0.4946
      3 O           6.8580   -1.2177    0.0000 O.2     1  UNL1       -0.4220
      4 O           8.6282   -1.2072    0.0000 O.2     1  UNL1       -0.2452
      5 C           2.8660    1.6830    0.0000 C.3     1  UNL1        0.0951
      6 C           3.3660    0.8170    0.0000 C.3     1  UNL1        0.1162
      7 C           4.2320    0.3170    0.0000 C.ar    1  UNL1        0.0263
      8 C           2.0000    2.1830    0.0000 C.3     1  UNL1       -0.0333
      9 C           3.7320    2.1830    0.0000 C.3     1  UNL1       -0.0333
     10 C           4.2320   -0.6830    0.0000 C.ar    1  UNL1        0.1293
     11 C           5.0981    0.8170    0.0000 C.ar    1  UNL1       -0.0419
     12 C           5.9641    0.3170    0.0000 C.ar    1  UNL1        0.0182
     13 C           5.0981   -1.1830    0.0000 C.ar    1  UNL1        0.0234
     14 C           5.9641   -0.6830    0.0000 C.ar    1  UNL1        0.1425
     15 C           6.8580    0.8516    0.0000 C.ar    1  UNL1       -0.0443
     16 C           7.7641    0.3378    0.0000 C.ar    1  UNL1        0.0236
     17 C           3.3660   -2.1830    0.0000 C.3     1  UNL1        0.0788
     18 C           7.7641   -0.7038    0.0000 C.ar    1  UNL1        0.3372
     19 H           3.1460   -0.0040    0.0000 H       1  UNL1        0.0676
     20 H           2.3100    2.7200    0.0000 H       1  UNL1        0.0258
     21 H           1.4631    2.4930    0.0000 H       1  UNL1        0.0258
     22 H           1.6900    1.6461    0.0000 H       1  UNL1        0.0258
     23 H           4.0420    1.6461    0.0000 H       1  UNL1        0.0258
     24 H           4.2690    2.4930    0.0000 H       1  UNL1        0.0258
     25 H           3.4220    2.7200    0.0000 H       1  UNL1        0.0258
     26 H           5.0981    1.4370    0.0000 H       1  UNL1        0.0629
     27 H           5.0981   -1.8030    0.0000 H       1  UNL1        0.0691
     28 H           6.8509    1.4716    0.0000 H       1  UNL1        0.0627
     29 H           8.2998    0.6499    0.0000 H       1  UNL1        0.0689
     30 H           2.7460   -2.1830    0.0000 H       1  UNL1        0.0660
     31 H           3.3660   -2.8030    0.0000 H       1  UNL1        0.0660
     32 H           3.9860   -2.1830    0.0000 H       1  UNL1        0.0660
@<TRIPOS>BOND
     1     1     5    1
     2     1     6    1
     3     2    10    1
     4     2    17    1
     5     3    14   ar
     6     3    18   ar
     7     4    18    2
     8     5     6    1
     9     5     8    1
    10     5     9    1
    11     6     7    1
    12     6    19    1
    13     7    10   ar
    14     7    11   ar
    15     8    20    1
    16     8    21    1
    17     8    22    1
    18     9    23    1
    19     9    24    1
    20     9    25    1
    21    10    13   ar
    22    11    12   ar
    23    11    26    1
    24    12    14   ar
    25    12    15   ar
    26    13    14   ar
    27    13    27    1
    28    15    16   ar
    29    15    28    1
    30    16    18   ar
    31    16    29    1
    32    17    30    1
    33    17    31    1
    34    17    32    1
