@<TRIPOS>MOLECULE
IMPHY011101
 40 42 0 0 0
SMALL
GASTEIGER

@<TRIPOS>ATOM
      1 O           4.5741   -0.8714    0.0000 O.3     1  UNL1       -0.3624
      2 C           3.8001   -0.2382    0.0000 C.3     1  UNL1        0.0966
      3 C           3.8126    0.7617    0.0000 C.3     1  UNL1        0.0012
      4 C           5.9968    0.2345    0.0000 C.3     1  UNL1       -0.0094
      5 C           4.8215    0.3560    0.0000 C.3     1  UNL1       -0.0139
      6 C           5.5518   -0.6610    0.0000 C.3     1  UNL1        0.0680
      7 C           4.6021    1.3754    0.0000 C.3     1  UNL1       -0.0443
      8 C           5.5742    1.1408    0.0000 C.3     1  UNL1       -0.0469
      9 C           2.9254    1.3075    0.0000 C.3     1  UNL1       -0.0412
     10 C           2.8996   -0.7617    0.0000 C.2     1  UNL1       -0.0446
     11 C           3.8251    1.7617    0.0000 C.3     1  UNL1       -0.0566
     12 C           2.0130    0.8050    0.0000 C.3     1  UNL1       -0.0338
     13 C           5.5842   -1.6605    0.0000 C.3     1  UNL1       -0.0358
     14 C           6.5123   -0.9391    0.0000 C.3     1  UNL1       -0.0358
     15 C           2.0000   -0.2366    0.0000 C.2     1  UNL1       -0.0823
     16 C           2.8987   -1.7617    0.0000 C.3     1  UNL1       -0.0411
     17 H           6.8278    0.4133    0.0000 H       1  UNL1        0.0329
     18 H           5.0724    0.9229    0.0000 H       1  UNL1        0.0300
     19 H           4.3596    0.7696    0.0000 H       1  UNL1        0.0300
     20 H           4.8781    1.9306    0.0000 H       1  UNL1        0.0272
     21 H           4.1223    1.7680    0.0000 H       1  UNL1        0.0272
     22 H           6.1803    1.2712    0.0000 H       1  UNL1        0.0269
     23 H           5.5820    1.7607    0.0000 H       1  UNL1        0.0269
     24 H           3.3358    1.7722    0.0000 H       1  UNL1        0.0274
     25 H           2.5378    1.7914    0.0000 H       1  UNL1        0.0274
     26 H           4.4450    1.7539    0.0000 H       1  UNL1        0.0236
     27 H           3.8328    2.3816    0.0000 H       1  UNL1        0.0236
     28 H           3.2051    1.7694    0.0000 H       1  UNL1        0.0236
     29 H           1.8112    1.3912    0.0000 H       1  UNL1        0.0308
     30 H           1.4008    0.7065    0.0000 H       1  UNL1        0.0308
     31 H           4.9645   -1.6806    0.0000 H       1  UNL1        0.0257
     32 H           5.6043   -2.2802    0.0000 H       1  UNL1        0.0257
     33 H           6.2038   -1.6404    0.0000 H       1  UNL1        0.0257
     34 H           6.3399   -1.5346    0.0000 H       1  UNL1        0.0257
     35 H           7.1079   -1.1114    0.0000 H       1  UNL1        0.0257
     36 H           6.6847   -0.3435    0.0000 H       1  UNL1        0.0257
     37 H           1.4604   -0.5419    0.0000 H       1  UNL1        0.0572
     38 H           2.2787   -1.7611    0.0000 H       1  UNL1        0.0275
     39 H           2.8981   -2.3817    0.0000 H       1  UNL1        0.0275
     40 H           3.5187   -1.7622    0.0000 H       1  UNL1        0.0275
@<TRIPOS>BOND
     1     1     2    1
     2     1     6    1
     3     2     3    1
     4     2     5    1
     5     2    10    1
     6     3     7    1
     7     3     9    1
     8     3    11    1
     9     4     5    1
    10     4     6    1
    11     4     8    1
    12     4    17    1
    13     5    18    1
    14     5    19    1
    15     6    13    1
    16     6    14    1
    17     7     8    1
    18     7    20    1
    19     7    21    1
    20     8    22    1
    21     8    23    1
    22     9    12    1
    23     9    24    1
    24     9    25    1
    25    10    15    2
    26    10    16    1
    27    11    26    1
    28    11    27    1
    29    11    28    1
    30    12    15    1
    31    12    29    1
    32    12    30    1
    33    13    31    1
    34    13    32    1
    35    13    33    1
    36    14    34    1
    37    14    35    1
    38    14    36    1
    39    15    37    1
    40    16    38    1
    41    16    39    1
    42    16    40    1
