@<TRIPOS>MOLECULE
IMPHY015962
 29 28 0 0 0
SMALL
GASTEIGER

@<TRIPOS>ATOM
      1 O           2.5369   -0.8170    0.0000 O.3     1  UNL1       -0.3888
      2 C           3.4030   -0.3170    0.0000 C.3     1  UNL1        0.0639
      3 C           4.2690    0.1830    0.0000 C.3     1  UNL1       -0.0060
      4 C           2.9030    0.5490    0.0000 C.3     1  UNL1       -0.0360
      5 C           3.9030   -1.1830    0.0000 C.3     1  UNL1       -0.0360
      6 C           5.1350   -0.3170    0.0000 C.2     1  UNL1       -0.0813
      7 C           6.0010    0.1830    0.0000 C.2     1  UNL1       -0.0657
      8 C           6.8671   -0.3170    0.0000 C.2     1  UNL1       -0.0633
      9 C           7.7331    0.1830    0.0000 C.2     1  UNL1       -0.0757
     10 C           8.5991   -0.3170    0.0000 C.3     1  UNL1       -0.0438
     11 C           7.7331    1.1830    0.0000 C.3     1  UNL1       -0.0438
     12 H           4.6675    0.6580    0.0000 H       1  UNL1        0.0335
     13 H           3.8705    0.6580    0.0000 H       1  UNL1        0.0335
     14 H           3.4399    0.8590    0.0000 H       1  UNL1        0.0257
     15 H           2.5930    1.0860    0.0000 H       1  UNL1        0.0257
     16 H           2.3660    0.2390    0.0000 H       1  UNL1        0.0257
     17 H           3.3660   -1.4930    0.0000 H       1  UNL1        0.0257
     18 H           4.2130   -1.7200    0.0000 H       1  UNL1        0.0257
     19 H           4.4399   -0.8730    0.0000 H       1  UNL1        0.0257
     20 H           5.1350   -0.9370    0.0000 H       1  UNL1        0.0573
     21 H           2.0000   -0.5070    0.0000 H       1  UNL1        0.2101
     22 H           6.0010    0.8030    0.0000 H       1  UNL1        0.0614
     23 H           6.8671   -0.9370    0.0000 H       1  UNL1        0.0617
     24 H           8.2891   -0.8539    0.0000 H       1  UNL1        0.0274
     25 H           9.1360   -0.6270    0.0000 H       1  UNL1        0.0274
     26 H           8.9091    0.2199    0.0000 H       1  UNL1        0.0274
     27 H           8.3531    1.1830    0.0000 H       1  UNL1        0.0274
     28 H           7.7331    1.8030    0.0000 H       1  UNL1        0.0274
     29 H           7.1131    1.1830    0.0000 H       1  UNL1        0.0274
@<TRIPOS>BOND
     1     1     2    1
     2     1    21    1
     3     2     3    1
     4     2     4    1
     5     2     5    1
     6     3     6    1
     7     3    12    1
     8     3    13    1
     9     4    14    1
    10     4    15    1
    11     4    16    1
    12     5    17    1
    13     5    18    1
    14     5    19    1
    15     6     7    2
    16     6    20    1
    17     7     8    1
    18     7    22    1
    19     8     9    2
    20     8    23    1
    21     9    10    1
    22     9    11    1
    23    10    24    1
    24    10    25    1
    25    10    26    1
    26    11    27    1
    27    11    28    1
    28    11    29    1
