@<TRIPOS>MOLECULE
IMPHY004909
 37 37 0 0 0
SMALL
GASTEIGER

@<TRIPOS>ATOM
      1 O           7.4449    1.1065    0.0000 O.2     1  UNL1       -0.4854
      2 O           6.3571    3.4544    0.0000 O.2     1  UNL1       -0.2886
      3 C           4.5258    0.0981    0.0000 C.3     1  UNL1       -0.0529
      4 C           5.4769    0.4071    0.0000 C.3     1  UNL1       -0.0493
      5 C           4.3179   -0.8800    0.0000 C.3     1  UNL1       -0.0531
      6 C           5.6848    1.3853    0.0000 C.3     1  UNL1       -0.0084
      7 C           3.3669   -1.1890    0.0000 C.3     1  UNL1       -0.0531
      8 C           6.6359    1.6943    0.0000 C.3     1  UNL1        0.1612
      9 C           3.1590   -2.1672    0.0000 C.3     1  UNL1       -0.0533
     10 C           2.2079   -2.4762    0.0000 C.3     1  UNL1       -0.0559
     11 C           6.9449    2.6454    0.0000 C.2     1  UNL1        0.1993
     12 C           8.2539    1.6943    0.0000 C.2     1  UNL1        0.0991
     13 C           7.9449    2.6454    0.0000 C.2     1  UNL1        0.0218
     14 C           2.0000   -3.4544    0.0000 C.3     1  UNL1       -0.0653
     15 C           9.2050    1.3853    0.0000 C.3     1  UNL1       -0.0068
     16 H           4.4396    0.7121    0.0000 H       1  UNL1        0.0265
     17 H           3.9062    0.1197    0.0000 H       1  UNL1        0.0265
     18 H           5.5632   -0.2068    0.0000 H       1  UNL1        0.0267
     19 H           6.0965    0.3855    0.0000 H       1  UNL1        0.0267
     20 H           4.4042   -1.4940    0.0000 H       1  UNL1        0.0265
     21 H           4.9376   -0.9017    0.0000 H       1  UNL1        0.0265
     22 H           5.5985    1.9992    0.0000 H       1  UNL1        0.0305
     23 H           5.0652    1.4069    0.0000 H       1  UNL1        0.0305
     24 H           3.2806   -0.5751    0.0000 H       1  UNL1        0.0265
     25 H           2.7473   -1.1674    0.0000 H       1  UNL1        0.0265
     26 H           6.5029    0.8548    0.0000 H       1  UNL1        0.0817
     27 H           3.2453   -2.7812    0.0000 H       1  UNL1        0.0265
     28 H           3.7786   -2.1888    0.0000 H       1  UNL1        0.0265
     29 H           2.1216   -1.8622    0.0000 H       1  UNL1        0.0263
     30 H           1.5883   -2.4546    0.0000 H       1  UNL1        0.0263
     31 H           8.3093    3.1469    0.0000 H       1  UNL1        0.0687
     32 H           1.3936   -3.3255    0.0000 H       1  UNL1        0.0230
     33 H           1.8711   -4.0608    0.0000 H       1  UNL1        0.0230
     34 H           2.6064   -3.5833    0.0000 H       1  UNL1        0.0230
     35 H           9.0134    0.7956    0.0000 H       1  UNL1        0.0308
     36 H           9.7946    1.1937    0.0000 H       1  UNL1        0.0308
     37 H           9.3966    1.9749    0.0000 H       1  UNL1        0.0308
@<TRIPOS>BOND
     1     1     8    1
     2     1    12    1
     3     2    11    2
     4     3     4    1
     5     3     5    1
     6     3    16    1
     7     3    17    1
     8     4     6    1
     9     4    18    1
    10     4    19    1
    11     5     7    1
    12     5    20    1
    13     5    21    1
    14     6     8    1
    15     6    22    1
    16     6    23    1
    17     7     9    1
    18     7    24    1
    19     7    25    1
    20     8    11    1
    21     8    26    1
    22     9    10    1
    23     9    27    1
    24     9    28    1
    25    10    14    1
    26    10    29    1
    27    10    30    1
    28    11    13    1
    29    12    13    2
    30    12    15    1
    31    13    31    1
    32    14    32    1
    33    14    33    1
    34    14    34    1
    35    15    35    1
    36    15    36    1
    37    15    37    1
