@<TRIPOS>MOLECULE
IMPHY015432
 40 41 0 0 0
SMALL
GASTEIGER

@<TRIPOS>ATOM
      1 O           2.5369   -1.2621    0.0000 O.3     1  UNL1       -0.3914
      2 C           5.1350   -0.7621    0.0000 C.3     1  UNL1       -0.0084
      3 C           5.1350    0.2379    0.0000 C.2     1  UNL1       -0.0639
      4 C           6.0290   -1.2967    0.0000 C.3     1  UNL1       -0.0433
      5 C           4.2690   -1.2621    0.0000 C.3     1  UNL1       -0.0174
      6 C           6.9350    0.2587    0.0000 C.3     1  UNL1       -0.0167
      7 C           6.0290    0.7726    0.0000 C.3     1  UNL1       -0.0245
      8 C           6.9350   -0.7829    0.0000 C.3     1  UNL1       -0.0455
      9 C           3.4030   -0.7621    0.0000 C.3     1  UNL1        0.0597
     10 C           4.2690    0.7379    0.0000 C.2     1  UNL1       -0.0704
     11 C           3.4030    0.2379    0.0000 C.3     1  UNL1       -0.0056
     12 C           5.1350   -1.7621    0.0000 C.3     1  UNL1       -0.0558
     13 C           7.7991    0.7621    0.0000 C.2     1  UNL1       -0.0763
     14 C           4.2690    1.7379    0.0000 C.3     1  UNL1       -0.0434
     15 C           8.6671    0.2654    0.0000 C.3     1  UNL1       -0.0438
     16 C           7.7953    1.7621    0.0000 C.2     1  UNL1       -0.0994
     17 H           5.6244   -1.7665    0.0000 H       1  UNL1        0.0274
     18 H           6.4226   -1.7758    0.0000 H       1  UNL1        0.0274
     19 H           3.8705   -1.7370    0.0000 H       1  UNL1        0.0298
     20 H           4.6675   -1.7370    0.0000 H       1  UNL1        0.0298
     21 H           7.4726   -0.0502    0.0000 H       1  UNL1        0.0348
     22 H           6.4226    1.2516    0.0000 H       1  UNL1        0.0316
     23 H           5.6244    1.2424    0.0000 H       1  UNL1        0.0316
     24 H           7.1441   -1.3666    0.0000 H       1  UNL1        0.0271
     25 H           7.5459   -0.6768    0.0000 H       1  UNL1        0.0271
     26 H           3.4030   -1.3821    0.0000 H       1  UNL1        0.0596
     27 H           3.1909    0.8205    0.0000 H       1  UNL1        0.0335
     28 H           2.7924    0.1303    0.0000 H       1  UNL1        0.0335
     29 H           4.5150   -1.7621    0.0000 H       1  UNL1        0.0238
     30 H           5.1350   -2.3821    0.0000 H       1  UNL1        0.0238
     31 H           5.7550   -1.7621    0.0000 H       1  UNL1        0.0238
     32 H           4.8890    1.7379    0.0000 H       1  UNL1        0.0274
     33 H           4.2690    2.3579    0.0000 H       1  UNL1        0.0274
     34 H           3.6490    1.7379    0.0000 H       1  UNL1        0.0274
     35 H           2.0000   -0.9521    0.0000 H       1  UNL1        0.2098
     36 H           8.3591   -0.2727    0.0000 H       1  UNL1        0.0274
     37 H           9.2052   -0.0425    0.0000 H       1  UNL1        0.0274
     38 H           8.9750    0.8035    0.0000 H       1  UNL1        0.0274
     39 H           8.3310    2.0741    0.0000 H       1  UNL1        0.0534
     40 H           7.2571    2.0700    0.0000 H       1  UNL1        0.0534
@<TRIPOS>BOND
     1     1     9    1
     2     1    35    1
     3     2     3    1
     4     2     4    1
     5     2     5    1
     6     2    12    1
     7     3     7    1
     8     3    10    2
     9     4     8    1
    10     4    17    1
    11     4    18    1
    12     5     9    1
    13     5    19    1
    14     5    20    1
    15     6     7    1
    16     6     8    1
    17     6    13    1
    18     6    21    1
    19     7    22    1
    20     7    23    1
    21     8    24    1
    22     8    25    1
    23     9    11    1
    24     9    26    1
    25    10    11    1
    26    10    14    1
    27    11    27    1
    28    11    28    1
    29    12    29    1
    30    12    30    1
    31    12    31    1
    32    13    15    1
    33    13    16    2
    34    14    32    1
    35    14    33    1
    36    14    34    1
    37    15    36    1
    38    15    37    1
    39    15    38    1
    40    16    39    1
    41    16    40    1
