@<TRIPOS>MOLECULE
IMPHY013303
 67 71 0 0 0
SMALL
GASTEIGER

@<TRIPOS>ATOM
      1 O           8.5991   -1.1121    0.0000 O.3     1  UNL1       -0.3609
      2 O           6.0010   -0.6121    0.0000 O.3     1  UNL1       -0.3862
      3 O           6.0010   -2.6121    0.0000 O.3     1  UNL1       -0.3865
      4 O           7.7331   -3.6121    0.0000 O.3     1  UNL1       -0.3865
      5 O           6.0010    0.3879    0.0000 O.3     1  UNL1       -0.4604
      6 O           5.1350    1.8879    0.0000 O.3     1  UNL1       -0.3369
      7 O           9.4931    0.3533    0.0000 O.2     1  UNL1       -0.4616
      8 O           9.4651   -3.6121    0.0000 O.3     1  UNL1       -0.3924
      9 O           4.2690   -0.6121    0.0000 O.3     1  UNL1       -0.3829
     10 O           2.5369    0.3879    0.0000 O.3     1  UNL1       -0.3864
     11 O           2.5369    2.3879    0.0000 O.3     1  UNL1       -0.3869
     12 O           9.4815    3.4225    0.0000 O.2     1  UNL1       -0.2864
     13 O          13.8555    3.9221    0.0000 O.3     1  UNL1       -0.5068
     14 C           7.7331   -0.6121    0.0000 C.3     1  UNL1        0.1193
     15 C           6.8671   -1.1121    0.0000 C.3     1  UNL1        0.1139
     16 C           6.8671   -2.1121    0.0000 C.3     1  UNL1        0.1121
     17 C           7.7331   -2.6121    0.0000 C.3     1  UNL1        0.1117
     18 C           8.5991   -2.1121    0.0000 C.3     1  UNL1        0.1108
     19 C           7.7331    0.3879    0.0000 C.ar    1  UNL1        0.0683
     20 C           9.4651   -2.6121    0.0000 C.3     1  UNL1        0.0729
     21 C           6.8671    0.8879    0.0000 C.ar    1  UNL1        0.1333
     22 C           4.2690    0.3879    0.0000 C.3     1  UNL1        0.1454
     23 C           5.1350    0.8879    0.0000 C.3     1  UNL1        0.2305
     24 C           8.5991    0.8879    0.0000 C.ar    1  UNL1        0.1476
     25 C           3.4030    0.8879    0.0000 C.3     1  UNL1        0.1148
     26 C           3.4030    1.8879    0.0000 C.3     1  UNL1        0.1070
     27 C           4.2690    2.3879    0.0000 C.3     1  UNL1        0.0802
     28 C           8.5991    1.8879    0.0000 C.ar    1  UNL1        0.0651
     29 C           6.8671    1.8879    0.0000 C.ar    1  UNL1       -0.0186
     30 C           7.7331    2.3879    0.0000 C.ar    1  UNL1       -0.0439
     31 C           9.4931    2.4226    0.0000 C.ar    1  UNL1        0.2002
     32 C          10.3991    1.9087    0.0000 C.ar    1  UNL1        0.0643
     33 C          10.3991    0.8671    0.0000 C.ar    1  UNL1        0.1039
     34 C          11.2632    2.4121    0.0000 C.ar    1  UNL1       -0.0110
     35 C          11.2594    3.4121    0.0000 C.ar    1  UNL1       -0.0504
     36 C          12.1312    1.9154    0.0000 C.ar    1  UNL1       -0.0504
     37 C          12.1235    3.9154    0.0000 C.ar    1  UNL1       -0.0196
     38 C          12.9953    2.4188    0.0000 C.ar    1  UNL1       -0.0196
     39 C          12.9914    3.4187    0.0000 C.ar    1  UNL1        0.1169
     40 H           8.4692   -0.1871    0.0000 H       1  UNL1        0.0676
     41 H           6.8671   -0.4921    0.0000 H       1  UNL1        0.0649
     42 H           6.3301   -1.8021    0.0000 H       1  UNL1        0.0647
     43 H           8.2700   -2.9221    0.0000 H       1  UNL1        0.0647
     44 H           9.1360   -1.8021    0.0000 H       1  UNL1        0.0646
     45 H          10.0757   -2.7197    0.0000 H       1  UNL1        0.0584
     46 H           9.6772   -2.0295    0.0000 H       1  UNL1        0.0584
     47 H           3.7320    0.0779    0.0000 H       1  UNL1        0.0683
     48 H           5.1350    0.2679    0.0000 H       1  UNL1        0.1084
     49 H           2.8660    1.1979    0.0000 H       1  UNL1        0.0648
     50 H           3.4030    2.5079    0.0000 H       1  UNL1        0.0643
     51 H           5.4641   -0.9221    0.0000 H       1  UNL1        0.2100
     52 H           6.0010   -3.2321    0.0000 H       1  UNL1        0.2100
     53 H           7.1962   -3.9221    0.0000 H       1  UNL1        0.2100
     54 H           4.6675    2.8629    0.0000 H       1  UNL1        0.0588
     55 H           3.8705    2.8629    0.0000 H       1  UNL1        0.0588
     56 H           6.3301    2.1979    0.0000 H       1  UNL1        0.0654
     57 H           7.7331    3.0079    0.0000 H       1  UNL1        0.0627
     58 H          10.0021   -3.9221    0.0000 H       1  UNL1        0.2095
     59 H           3.7320   -0.9221    0.0000 H       1  UNL1        0.2102
     60 H           2.0000    0.6979    0.0000 H       1  UNL1        0.2100
     61 H           2.5369    3.0079    0.0000 H       1  UNL1        0.2100
     62 H          10.9349    0.5550    0.0000 H       1  UNL1        0.1037
     63 H          10.7212    3.7200    0.0000 H       1  UNL1        0.0625
     64 H          12.1336    1.2954    0.0000 H       1  UNL1        0.0625
     65 H          12.1211    4.5354    0.0000 H       1  UNL1        0.0654
     66 H          13.5334    2.1108    0.0000 H       1  UNL1        0.0654
     67 H          14.3936    3.6142    0.0000 H       1  UNL1        0.2921
@<TRIPOS>BOND
     1     1    14    1
     2     1    18    1
     3    15     2    1
     4     2    51    1
     5    16     3    1
     6     3    52    1
     7    17     4    1
     8     4    53    1
     9     5    21    1
    10    23     5    1
    11     6    23    1
    12     6    27    1
    13     7    24   ar
    14     7    33   ar
    15     8    20    1
    16     8    58    1
    17    22     9    1
    18     9    59    1
    19    25    10    1
    20    10    60    1
    21    26    11    1
    22    11    61    1
    23    12    31    2
    24    13    39    1
    25    13    67    1
    26    14    15    1
    27    14    19    1
    28    14    40    1
    29    15    16    1
    30    15    41    1
    31    16    17    1
    32    16    42    1
    33    17    18    1
    34    17    43    1
    35    18    20    1
    36    18    44    1
    37    19    21   ar
    38    19    24   ar
    39    20    45    1
    40    20    46    1
    41    21    29   ar
    42    22    23    1
    43    22    25    1
    44    22    47    1
    45    23    48    1
    46    24    28   ar
    47    25    26    1
    48    25    49    1
    49    26    27    1
    50    26    50    1
    51    27    54    1
    52    27    55    1
    53    28    30   ar
    54    28    31   ar
    55    29    30   ar
    56    29    56    1
    57    30    57    1
    58    31    32   ar
    59    32    33   ar
    60    32    34    1
    61    33    62    1
    62    34    35   ar
    63    34    36   ar
    64    35    37   ar
    65    35    63    1
    66    36    38   ar
    67    36    64    1
    68    37    39   ar
    69    37    65    1
    70    38    39   ar
    71    38    66    1
