@<TRIPOS>MOLECULE
IMPHY017232
 27 26 0 0 0
SMALL
GASTEIGER

@<TRIPOS>ATOM
      1 O           8.0622   -0.0950    0.0000 O.3     1  UNL1       -0.4631
      2 O           3.7320    0.4050    0.0000 O.3     1  UNL1       -0.4648
      3 O           6.3301   -1.0950    0.0000 O.3     1  UNL1       -0.3801
      4 O           7.1962    1.4050    0.0000 O.2     1  UNL1       -0.2479
      5 O           4.5981   -1.0950    0.0000 O.2     1  UNL1       -0.2507
      6 C           6.3301   -0.0950    0.0000 C.3     1  UNL1        0.1616
      7 C           5.4641    0.4050    0.0000 C.3     1  UNL1        0.0813
      8 C           7.1962    0.4050    0.0000 C.2     1  UNL1        0.3365
      9 C           4.5981   -0.0950    0.0000 C.2     1  UNL1        0.3101
     10 C           8.9282    0.4050    0.0000 C.3     1  UNL1        0.0897
     11 C           2.8660   -0.0950    0.0000 C.3     1  UNL1        0.0896
     12 C           9.7942   -0.0950    0.0000 C.3     1  UNL1       -0.0306
     13 C           2.0000    0.4050    0.0000 C.3     1  UNL1       -0.0306
     14 H           6.8671   -0.4050    0.0000 H       1  UNL1        0.0716
     15 H           5.8626    0.8799    0.0000 H       1  UNL1        0.0409
     16 H           5.0656    0.8799    0.0000 H       1  UNL1        0.0409
     17 H           9.3267    0.8799    0.0000 H       1  UNL1        0.0694
     18 H           8.5297    0.8799    0.0000 H       1  UNL1        0.0694
     19 H           2.4675   -0.5699    0.0000 H       1  UNL1        0.0694
     20 H           3.2646   -0.5699    0.0000 H       1  UNL1        0.0694
     21 H           5.7932   -1.4050    0.0000 H       1  UNL1        0.2105
     22 H           9.4842   -0.6319    0.0000 H       1  UNL1        0.0262
     23 H          10.3312   -0.4050    0.0000 H       1  UNL1        0.0262
     24 H          10.1042    0.4419    0.0000 H       1  UNL1        0.0262
     25 H           2.3100    0.9419    0.0000 H       1  UNL1        0.0262
     26 H           1.4631    0.7150    0.0000 H       1  UNL1        0.0262
     27 H           1.6900   -0.1319    0.0000 H       1  UNL1        0.0262
@<TRIPOS>BOND
     1     1     8    1
     2     1    10    1
     3     2     9    1
     4     2    11    1
     5     3     6    1
     6     3    21    1
     7     4     8    2
     8     5     9    2
     9     6     7    1
    10     6     8    1
    11     6    14    1
    12     7     9    1
    13     7    15    1
    14     7    16    1
    15    10    12    1
    16    10    17    1
    17    10    18    1
    18    11    13    1
    19    11    19    1
    20    11    20    1
    21    12    22    1
    22    12    23    1
    23    12    24    1
    24    13    25    1
    25    13    26    1
    26    13    27    1
