@<TRIPOS>MOLECULE
IMPHY008221
 139 145 0 0 0
SMALL
GASTEIGER

@<TRIPOS>ATOM
      1 O          10.4084    4.2172    0.0000 O.3     1  UNL1       -0.3910
      2 O           7.7331   -3.5350    0.0000 O.3     1  UNL1       -0.3448
      3 O           8.9845    6.2592    0.0000 O.3     1  UNL1       -0.3874
      4 O           7.6930    6.8584    0.0000 O.3     1  UNL1       -0.4580
      5 O          10.1323    5.5180    0.0000 O.3     1  UNL1       -0.3943
      6 O          10.1773   -2.8433    0.0000 O.3     1  UNL1       -0.3944
      7 O           6.0010   -3.5350    0.0000 O.3     1  UNL1       -0.3315
      8 O           7.7331   -5.5350    0.0000 O.3     1  UNL1       -0.3841
      9 O           5.9610    6.8450    0.0000 O.2     1  UNL1       -0.2505
     10 O           6.0010   -6.5350    0.0000 O.3     1  UNL1       -0.3361
     11 O           4.2690   -5.5350    0.0000 O.3     1  UNL1       -0.3860
     12 O           4.2690   -2.5349    0.0000 O.3     1  UNL1       -0.4788
     13 O           3.4030   -4.0350    0.0000 O.2     1  UNL1       -0.2480
     14 O           4.2690   -6.5350    0.0000 O.3     1  UNL1       -0.3366
     15 O           6.0010   -8.5350    0.0000 O.2     1  UNL1       -0.2892
     16 O           4.2690   -9.5350    0.0000 O.3     1  UNL1       -0.3814
     17 O           2.5369   -8.5350    0.0000 O.3     1  UNL1       -0.3861
     18 O           2.5369   -5.5350    0.0000 O.3     1  UNL1       -0.3924
     19 C           8.6342    1.1653    0.0000 C.3     1  UNL1       -0.0193
     20 C           7.7701    0.6619    0.0000 C.3     1  UNL1       -0.0257
     21 C           7.7580   -0.3796    0.0000 C.3     1  UNL1       -0.0249
     22 C           8.6303    2.1653    0.0000 C.3     1  UNL1       -0.0028
     23 C           8.6581   -0.9039    0.0000 C.3     1  UNL1       -0.0255
     24 C           9.5461    0.6619    0.0000 C.3     1  UNL1       -0.0463
     25 C           7.7624    2.6619    0.0000 C.2     1  UNL1       -0.0631
     26 C           7.7423    3.7034    0.0000 C.3     1  UNL1       -0.0062
     27 C           8.6383    4.2346    0.0000 C.3     1  UNL1        0.0556
     28 C           9.5581   -0.3796    0.0000 C.3     1  UNL1       -0.0485
     29 C           8.6706   -1.9888    0.0000 C.3     1  UNL1        0.0206
     30 C           9.5383    2.6756    0.0000 C.3     1  UNL1       -0.0165
     31 C           6.9021    1.1586    0.0000 C.3     1  UNL1       -0.0306
     32 C           6.8081   -0.9039    0.0000 C.3     1  UNL1       -0.0447
     33 C           9.5424    3.7172    0.0000 C.3     1  UNL1        0.0668
     34 C           9.6183    1.3427    0.0000 C.3     1  UNL1       -0.0585
     35 C           7.7331   -2.5349    0.0000 C.3     1  UNL1        0.0695
     36 C           6.8983    2.1586    0.0000 C.2     1  UNL1       -0.0836
     37 C           6.8939    0.1237    0.0000 C.3     1  UNL1       -0.0590
     38 C           6.7956   -1.9888    0.0000 C.3     1  UNL1       -0.0254
     39 C           6.7884    4.2203    0.0000 C.3     1  UNL1       -0.0371
     40 C           9.6158    1.9954    0.0000 C.3     1  UNL1       -0.0552
     41 C           8.6424    5.3195    0.0000 C.3     1  UNL1        0.1031
     42 C           6.7674    5.3051    0.0000 C.3     1  UNL1        0.0052
     43 C           7.7007    5.8584    0.0000 C.3     1  UNL1        0.1345
     44 C           9.4985    4.7446    0.0000 C.3     1  UNL1        0.0552
     45 C           9.6706   -1.9811    0.0000 C.3     1  UNL1        0.0522
     46 C           9.1773   -2.8510    0.0000 C.3     1  UNL1       -0.0548
     47 C           5.7676    5.2897    0.0000 C.3     1  UNL1       -0.0563
     48 C           6.2542    6.1633    0.0000 C.3     1  UNL1       -0.0563
     49 C           6.8671   -4.0350    0.0000 C.3     1  UNL1        0.1888
     50 C           6.8671   -5.0350    0.0000 C.3     1  UNL1        0.1345
     51 C           6.8232    7.3517    0.0000 C.2     1  UNL1        0.3103
     52 C           6.0010   -5.5350    0.0000 C.3     1  UNL1        0.1214
     53 C           6.8155    8.3517    0.0000 C.3     1  UNL1        0.0534
     54 C           5.1350   -4.0350    0.0000 C.3     1  UNL1        0.1859
     55 C           5.1350   -5.0350    0.0000 C.3     1  UNL1        0.1205
     56 C           5.9456    8.8450    0.0000 C.3     1  UNL1       -0.0432
     57 C           7.6776    8.8583    0.0000 C.3     1  UNL1       -0.0523
     58 C           4.2690   -3.5350    0.0000 C.2     1  UNL1        0.3367
     59 C           5.1350   -7.0350    0.0000 C.3     1  UNL1        0.2224
     60 C           5.9379    9.8450    0.0000 C.3     1  UNL1       -0.0645
     61 C           5.1350   -8.0350    0.0000 C.2     1  UNL1        0.2194
     62 C           4.2690   -8.5350    0.0000 C.3     1  UNL1        0.1462
     63 C           3.4030   -7.0350    0.0000 C.3     1  UNL1        0.1137
     64 C           3.4030   -8.0350    0.0000 C.3     1  UNL1        0.1164
     65 C           2.5369   -6.5350    0.0000 C.3     1  UNL1        0.0730
     66 H           8.5045    0.2341    0.0000 H       1  UNL1        0.0315
     67 H           9.3974   -1.3232    0.0000 H       1  UNL1        0.0313
     68 H          10.1581    0.5629    0.0000 H       1  UNL1        0.0271
     69 H           9.7484    1.2480    0.0000 H       1  UNL1        0.0271
     70 H           7.0162    3.2614    0.0000 H       1  UNL1        0.0354
     71 H           9.7739   -0.9609    0.0000 H       1  UNL1        0.0268
     72 H          10.1677   -0.2665    0.0000 H       1  UNL1        0.0268
     73 H           9.7451    2.0911    0.0000 H       1  UNL1        0.0299
     74 H          10.1496    2.7794    0.0000 H       1  UNL1        0.0299
     75 H           6.2911    1.2639    0.0000 H       1  UNL1        0.0310
     76 H           6.6923    0.5752    0.0000 H       1  UNL1        0.0310
     77 H           6.6058   -0.3178    0.0000 H       1  UNL1        0.0271
     78 H           6.1961   -1.0029    0.0000 H       1  UNL1        0.0271
     79 H          10.0787    3.4062    0.0000 H       1  UNL1        0.0601
     80 H           9.7283    0.7325    0.0000 H       1  UNL1        0.0235
     81 H          10.2284    1.4527    0.0000 H       1  UNL1        0.0235
     82 H           9.5083    1.9529    0.0000 H       1  UNL1        0.0235
     83 H           8.2706   -2.8439    0.0000 H       1  UNL1        0.0603
     84 H           6.3601    2.4665    0.0000 H       1  UNL1        0.0572
     85 H           7.2060    0.6594    0.0000 H       1  UNL1        0.0235
     86 H           6.3582    0.4358    0.0000 H       1  UNL1        0.0235
     87 H           6.5818   -0.4120    0.0000 H       1  UNL1        0.0235
     88 H           6.1756    4.3146    0.0000 H       1  UNL1        0.0278
     89 H           6.5906    3.6327    0.0000 H       1  UNL1        0.0278
     90 H           6.1860   -1.8757    0.0000 H       1  UNL1        0.0290
     91 H           6.5798   -2.5701    0.0000 H       1  UNL1        0.0290
     92 H           9.5105    1.3844    0.0000 H       1  UNL1        0.0238
     93 H          10.2268    1.8901    0.0000 H       1  UNL1        0.0238
     94 H           9.7211    2.6064    0.0000 H       1  UNL1        0.0238
     95 H           9.2528    5.2107    0.0000 H       1  UNL1        0.0638
     96 H           8.2359    6.1715    0.0000 H       1  UNL1        0.0766
     97 H           9.5776    4.1296    0.0000 H       1  UNL1        0.0564
     98 H           9.0945    5.2149    0.0000 H       1  UNL1        0.0564
     99 H          10.2516   -1.7646    0.0000 H       1  UNL1        0.0563
    100 H           9.5582   -1.3714    0.0000 H       1  UNL1        0.0563
    101 H           8.6428   -3.1651    0.0000 H       1  UNL1        0.0237
    102 H           9.4914   -3.3855    0.0000 H       1  UNL1        0.0237
    103 H           9.7118   -2.5368    0.0000 H       1  UNL1        0.0237
    104 H          10.9453    3.9072    0.0000 H       1  UNL1        0.2098
    105 H           5.7580    5.9096    0.0000 H       1  UNL1        0.0236
    106 H           5.1476    5.2801    0.0000 H       1  UNL1        0.0236
    107 H           5.7771    4.6697    0.0000 H       1  UNL1        0.0236
    108 H           6.7862    6.4816    0.0000 H       1  UNL1        0.0236
    109 H           5.9359    6.6954    0.0000 H       1  UNL1        0.0236
    110 H           5.7220    5.8451    0.0000 H       1  UNL1        0.0236
    111 H           8.5859    6.7342    0.0000 H       1  UNL1        0.2100
    112 H          10.7441    5.4174    0.0000 H       1  UNL1        0.2094
    113 H           6.8671   -3.4150    0.0000 H       1  UNL1        0.0938
    114 H          10.7972   -2.8385    0.0000 H       1  UNL1        0.2094
    115 H           7.4040   -4.7250    0.0000 H       1  UNL1        0.0671
    116 H           6.5380   -5.8450    0.0000 H       1  UNL1        0.0652
    117 H           7.3548    8.0458    0.0000 H       1  UNL1        0.0410
    118 H           5.1350   -3.4150    0.0000 H       1  UNL1        0.0741
    119 H           4.5981   -4.7250    0.0000 H       1  UNL1        0.0652
    120 H           7.7331   -6.1550    0.0000 H       1  UNL1        0.2101
    121 H           5.3342    8.9479    0.0000 H       1  UNL1        0.0270
    122 H           5.7380    8.2608    0.0000 H       1  UNL1        0.0270
    123 H           7.9917    8.3238    0.0000 H       1  UNL1        0.0238
    124 H           8.2121    9.1725    0.0000 H       1  UNL1        0.0238
    125 H           7.3635    9.3929    0.0000 H       1  UNL1        0.0238
    126 H           3.7320   -5.2250    0.0000 H       1  UNL1        0.2100
    127 H           5.1350   -6.4150    0.0000 H       1  UNL1        0.0996
    128 H           6.5579    9.8497    0.0000 H       1  UNL1        0.0230
    129 H           5.9331   10.4649    0.0000 H       1  UNL1        0.0230
    130 H           5.3179    9.8402    0.0000 H       1  UNL1        0.0230
    131 H           3.7320   -2.2250    0.0000 H       1  UNL1        0.2951
    132 H           4.8059   -8.8450    0.0000 H       1  UNL1        0.0702
    133 H           3.4030   -6.4150    0.0000 H       1  UNL1        0.0647
    134 H           3.4030   -8.6550    0.0000 H       1  UNL1        0.0650
    135 H           1.9264   -6.4273    0.0000 H       1  UNL1        0.0584
    136 H           2.3249   -7.1176    0.0000 H       1  UNL1        0.0584
    137 H           3.7320   -9.8450    0.0000 H       1  UNL1        0.2105
    138 H           2.0000   -8.2250    0.0000 H       1  UNL1        0.2100
    139 H           2.0000   -5.2250    0.0000 H       1  UNL1        0.2095
@<TRIPOS>BOND
     1    33     1    1
     2     1   104    1
     3    35     2    1
     4    49     2    1
     5    41     3    1
     6     3   111    1
     7    43     4    1
     8     4    51    1
     9     5    44    1
    10     5   112    1
    11     6    45    1
    12     6   114    1
    13     7    49    1
    14     7    54    1
    15    50     8    1
    16     8   120    1
    17     9    51    2
    18    52    10    1
    19    59    10    1
    20    55    11    1
    21    11   126    1
    22    12    58    1
    23    12   131    1
    24    13    58    2
    25    14    59    1
    26    14    63    1
    27    15    61    2
    28    62    16    1
    29    16   137    1
    30    64    17    1
    31    17   138    1
    32    18    65    1
    33    18   139    1
    34    19    20    1
    35    19    22    1
    36    19    24    1
    37    19    34    1
    38    20    21    1
    39    20    31    1
    40    20    66    1
    41    21    23    1
    42    21    32    1
    43    21    37    1
    44    22    25    1
    45    22    30    1
    46    22    40    1
    47    23    28    1
    48    23    29    1
    49    23    67    1
    50    24    28    1
    51    24    68    1
    52    24    69    1
    53    25    26    1
    54    25    36    2
    55    26    27    1
    56    26    39    1
    57    26    70    1
    58    27    33    1
    59    27    41    1
    60    27    44    1
    61    28    71    1
    62    28    72    1
    63    29    35    1
    64    29    45    1
    65    29    46    1
    66    30    33    1
    67    30    73    1
    68    30    74    1
    69    31    36    1
    70    31    75    1
    71    31    76    1
    72    32    38    1
    73    32    77    1
    74    32    78    1
    75    33    79    1
    76    34    80    1
    77    34    81    1
    78    34    82    1
    79    35    38    1
    80    35    83    1
    81    36    84    1
    82    37    85    1
    83    37    86    1
    84    37    87    1
    85    38    90    1
    86    38    91    1
    87    39    42    1
    88    39    88    1
    89    39    89    1
    90    40    92    1
    91    40    93    1
    92    40    94    1
    93    41    43    1
    94    41    95    1
    95    42    43    1
    96    42    47    1
    97    42    48    1
    98    43    96    1
    99    44    97    1
   100    44    98    1
   101    45    99    1
   102    45   100    1
   103    46   101    1
   104    46   102    1
   105    46   103    1
   106    47   105    1
   107    47   106    1
   108    47   107    1
   109    48   108    1
   110    48   109    1
   111    48   110    1
   112    49    50    1
   113    49   113    1
   114    50    52    1
   115    50   115    1
   116    51    53    1
   117    52    55    1
   118    52   116    1
   119    53    56    1
   120    53    57    1
   121    53   117    1
   122    54    55    1
   123    54    58    1
   124    54   118    1
   125    55   119    1
   126    56    60    1
   127    56   121    1
   128    56   122    1
   129    57   123    1
   130    57   124    1
   131    57   125    1
   132    59    61    1
   133    59   127    1
   134    60   128    1
   135    60   129    1
   136    60   130    1
   137    61    62    1
   138    62    64    1
   139    62   132    1
   140    63    64    1
   141    63    65    1
   142    63   133    1
   143    64   134    1
   144    65   135    1
   145    65   136    1
