@<TRIPOS>MOLECULE
IMPHY010846
 94 104 0 0 0
SMALL
GASTEIGER

@<TRIPOS>ATOM
      1 O          12.4812    1.0071    0.0000 O.3     1  UNL1       -0.4677
      2 O          11.6151   -0.4929    0.0000 O.2     1  UNL1       -0.2505
      3 N           8.3500    2.7442    0.0000 N.3     1  UNL1       -0.2979
      4 N           9.6739   -0.4647    0.0000 N.pl3   1  UNL1       -0.3364
      5 N           5.0532   -1.0700    0.0000 N.ar    1  UNL1       -0.3346
      6 N           2.6212    0.0802    0.0000 N.3     1  UNL1       -0.2932
      7 C           9.0171    1.0071    0.0000 C.3     1  UNL1        0.0365
      8 C           9.8831    0.5071    0.0000 C.3     1  UNL1        0.0561
      9 C           9.0171    2.0071    0.0000 C.3     1  UNL1        0.0277
     10 C           9.8831    2.5071    0.0000 C.3     1  UNL1       -0.0118
     11 C          10.7491    1.0071    0.0000 C.3     1  UNL1        0.0789
     12 C          10.7491    2.0071    0.0000 C.3     1  UNL1       -0.0309
     13 C           9.4831    1.1071    0.0000 C.3     1  UNL1       -0.0295
     14 C           9.4831    1.9071    0.0000 C.3     1  UNL1       -0.0439
     15 C           8.0452    1.2163    0.0000 C.3     1  UNL1       -0.0270
     16 C          10.1042    3.4736    0.0000 C.3     1  UNL1       -0.0447
     17 C           8.2800    0.3401    0.0000 C.ar    1  UNL1       -0.0164
     18 C           7.6922    2.2720    0.0000 C.3     1  UNL1        0.0001
     19 C           8.4310    3.7323    0.0000 C.3     1  UNL1       -0.0008
     20 C           9.3465    4.1130    0.0000 C.3     1  UNL1       -0.0396
     21 C           8.6852   -0.5677    0.0000 C.ar    1  UNL1        0.0315
     22 C          11.6151    0.5071    0.0000 C.2     1  UNL1        0.3121
     23 C           7.2519    0.4633    0.0000 C.ar    1  UNL1       -0.0510
     24 C           8.0903   -1.4152    0.0000 C.ar    1  UNL1       -0.0402
     25 C           6.6376   -0.3703    0.0000 C.ar    1  UNL1       -0.0243
     26 C           7.0596   -1.3158    0.0000 C.ar    1  UNL1       -0.0548
     27 C           5.6434   -0.2628    0.0000 C.3     1  UNL1        0.0603
     28 C           4.2452    0.7595    0.0000 C.3     1  UNL1       -0.0062
     29 C           5.2394    0.6520    0.0000 C.3     1  UNL1       -0.0205
     30 C           3.6550   -0.0478    0.0000 C.3     1  UNL1        0.0568
     31 C           4.0590   -0.9625    0.0000 C.ar    1  UNL1        0.0413
     32 C           3.8457    1.6672    0.0000 C.3     1  UNL1       -0.0444
     33 C           4.8354    1.5668    0.0000 C.3     1  UNL1       -0.0484
     34 C          13.3472    0.5071    0.0000 C.3     1  UNL1        0.0817
     35 C           3.4572   -1.8128    0.0000 C.ar    1  UNL1       -0.0161
     36 C           5.0926   -2.0630    0.0000 C.ar    1  UNL1        0.0501
     37 C           2.8612    1.7871    0.0000 C.3     1  UNL1       -0.0396
     38 C           2.2554    1.0019    0.0000 C.3     1  UNL1       -0.0004
     39 C           2.0000   -0.7559    0.0000 C.3     1  UNL1        0.0036
     40 C           2.4208   -1.7088    0.0000 C.3     1  UNL1       -0.0125
     41 C           4.1916   -2.4824    0.0000 C.ar    1  UNL1        0.0034
     42 C           4.4314    2.4815    0.0000 C.3     1  UNL1       -0.0647
     43 C           5.9492   -2.6443    0.0000 C.ar    1  UNL1       -0.0376
     44 C           4.0847   -3.5120    0.0000 C.ar    1  UNL1       -0.0523
     45 C           5.8662   -3.6762    0.0000 C.ar    1  UNL1       -0.0598
     46 C           4.9276   -4.1130    0.0000 C.ar    1  UNL1       -0.0611
     47 H           8.2810    1.5821    0.0000 H       1  UNL1        0.0477
     48 H          11.2861    1.3171    0.0000 H       1  UNL1        0.0435
     49 H          11.3597    1.8995    0.0000 H       1  UNL1        0.0280
     50 H          10.9612    2.5898    0.0000 H       1  UNL1        0.0280
     51 H           8.8961    1.3066    0.0000 H       1  UNL1        0.0286
     52 H          10.0765    1.2868    0.0000 H       1  UNL1        0.0286
     53 H           9.1053    2.3988    0.0000 H       1  UNL1        0.0272
     54 H          10.0765    1.7275    0.0000 H       1  UNL1        0.0272
     55 H           7.4317    1.1271    0.0000 H       1  UNL1        0.0287
     56 H           8.0243    0.5967    0.0000 H       1  UNL1        0.0287
     57 H          10.6792    3.2416    0.0000 H       1  UNL1        0.0271
     58 H          10.4242    4.0047    0.0000 H       1  UNL1        0.0271
     59 H           7.3827    2.8093    0.0000 H       1  UNL1        0.0427
     60 H           7.1268    2.0177    0.0000 H       1  UNL1        0.0427
     61 H          10.0880   -0.9261    0.0000 H       1  UNL1        0.1467
     62 H           8.2864    4.3352    0.0000 H       1  UNL1        0.0427
     63 H           7.8128    3.6847    0.0000 H       1  UNL1        0.0427
     64 H           9.8161    4.5177    0.0000 H       1  UNL1        0.0278
     65 H           9.0210    4.6406    0.0000 H       1  UNL1        0.0278
     66 H           7.0058    1.0323    0.0000 H       1  UNL1        0.0624
     67 H           8.3494   -1.9785    0.0000 H       1  UNL1        0.0636
     68 H           6.0093    0.2377    0.0000 H       1  UNL1        0.0578
     69 H           6.6975   -1.8191    0.0000 H       1  UNL1        0.0622
     70 H           5.8414    0.8002    0.0000 H       1  UNL1        0.0294
     71 H           5.1980    1.2706    0.0000 H       1  UNL1        0.0294
     72 H           3.1533   -0.7339    0.0000 H       1  UNL1        0.0532
     73 H           4.4485    1.8121    0.0000 H       1  UNL1        0.0272
     74 H           3.8101    2.2862    0.0000 H       1  UNL1        0.0272
     75 H           5.2647    1.1195    0.0000 H       1  UNL1        0.0269
     76 H           5.3504    1.9119    0.0000 H       1  UNL1        0.0269
     77 H          13.0372   -0.0298    0.0000 H       1  UNL1        0.0661
     78 H          13.8841    0.1971    0.0000 H       1  UNL1        0.0661
     79 H          13.6572    1.0441    0.0000 H       1  UNL1        0.0661
     80 H           3.0444    2.3794    0.0000 H       1  UNL1        0.0278
     81 H           2.3109    2.0726    0.0000 H       1  UNL1        0.0278
     82 H           1.8397    1.4619    0.0000 H       1  UNL1        0.0427
     83 H           1.7290    0.6745    0.0000 H       1  UNL1        0.0427
     84 H           1.5730   -0.3064    0.0000 H       1  UNL1        0.0430
     85 H           1.4841   -1.0998    0.0000 H       1  UNL1        0.0430
     86 H           1.8192   -1.8585    0.0000 H       1  UNL1        0.0326
     87 H           2.4654   -2.3272    0.0000 H       1  UNL1        0.0326
     88 H           4.9985    2.7320    0.0000 H       1  UNL1        0.0230
     89 H           4.1809    3.0487    0.0000 H       1  UNL1        0.0230
     90 H           3.8642    2.2310    0.0000 H       1  UNL1        0.0230
     91 H           6.5083   -2.3762    0.0000 H       1  UNL1        0.0638
     92 H           3.5196   -3.7671    0.0000 H       1  UNL1        0.0624
     93 H           6.3752   -4.0302    0.0000 H       1  UNL1        0.0618
     94 H           4.8708   -4.7303    0.0000 H       1  UNL1        0.0618
@<TRIPOS>BOND
     1     1    22    1
     2     1    34    1
     3     2    22    2
     4     3     9    1
     5     3    18    1
     6     3    19    1
     7     8     4    1
     8     4    21    1
     9     4    61    1
    10     5    27    1
    11     5    31   ar
    12     5    36   ar
    13     6    30    1
    14     6    38    1
    15     6    39    1
    16     7     8    1
    17     7     9    1
    18     7    15    1
    19     7    17    1
    20     8    11    1
    21     8    13    1
    22     9    10    1
    23     9    47    1
    24    10    12    1
    25    10    14    1
    26    10    16    1
    27    11    12    1
    28    11    22    1
    29    11    48    1
    30    12    49    1
    31    12    50    1
    32    13    14    1
    33    13    51    1
    34    13    52    1
    35    14    53    1
    36    14    54    1
    37    15    18    1
    38    15    55    1
    39    15    56    1
    40    16    20    1
    41    16    57    1
    42    16    58    1
    43    17    21   ar
    44    17    23   ar
    45    18    59    1
    46    18    60    1
    47    19    20    1
    48    19    62    1
    49    19    63    1
    50    20    64    1
    51    20    65    1
    52    21    24   ar
    53    23    25   ar
    54    23    66    1
    55    24    26   ar
    56    24    67    1
    57    25    26   ar
    58    27    25    1
    59    26    69    1
    60    27    29    1
    61    27    68    1
    62    28    29    1
    63    28    30    1
    64    28    32    1
    65    28    33    1
    66    29    70    1
    67    29    71    1
    68    30    31    1
    69    30    72    1
    70    31    35   ar
    71    32    37    1
    72    32    73    1
    73    32    74    1
    74    33    42    1
    75    33    75    1
    76    33    76    1
    77    34    77    1
    78    34    78    1
    79    34    79    1
    80    35    40    1
    81    35    41   ar
    82    36    41   ar
    83    36    43   ar
    84    37    38    1
    85    37    80    1
    86    37    81    1
    87    38    82    1
    88    38    83    1
    89    39    40    1
    90    39    84    1
    91    39    85    1
    92    40    86    1
    93    40    87    1
    94    41    44   ar
    95    42    88    1
    96    42    89    1
    97    42    90    1
    98    43    45   ar
    99    43    91    1
   100    44    46   ar
   101    44    92    1
   102    45    46   ar
   103    45    93    1
   104    46    94    1
