@<TRIPOS>MOLECULE
IMPHY011890
 42 42 0 0 0
SMALL
GASTEIGER

@<TRIPOS>ATOM
      1 O           4.5981   -2.3450    0.0000 O.3     1  UNL1       -0.3888
      2 C           4.5981    1.6550    0.0000 C.3     1  UNL1       -0.0078
      3 C           4.5981   -0.3450    0.0000 C.3     1  UNL1       -0.0121
      4 C           3.7320    1.1550    0.0000 C.3     1  UNL1       -0.0113
      5 C           3.7320    0.1550    0.0000 C.3     1  UNL1       -0.0403
      6 C           5.4641    1.1550    0.0000 C.3     1  UNL1       -0.0433
      7 C           5.4641    0.1550    0.0000 C.3     1  UNL1       -0.0468
      8 C           4.5981   -1.3450    0.0000 C.3     1  UNL1        0.0633
      9 C           4.0981    2.5210    0.0000 C.3     1  UNL1       -0.0556
     10 C           2.8660    1.6550    0.0000 C.2     1  UNL1       -0.0758
     11 C           5.0981    2.5210    0.0000 C.2     1  UNL1       -0.0846
     12 C           5.5981   -1.3450    0.0000 C.3     1  UNL1       -0.0361
     13 C           3.5981   -1.3450    0.0000 C.3     1  UNL1       -0.0361
     14 C           2.0000    1.1550    0.0000 C.3     1  UNL1       -0.0437
     15 C           2.8660    2.6550    0.0000 C.2     1  UNL1       -0.0994
     16 C           6.0981    2.5210    0.0000 C.2     1  UNL1       -0.1021
     17 H           5.3342   -0.7700    0.0000 H       1  UNL1        0.0328
     18 H           3.7320    1.7750    0.0000 H       1  UNL1        0.0354
     19 H           3.1215    0.2627    0.0000 H       1  UNL1        0.0275
     20 H           3.5200   -0.4276    0.0000 H       1  UNL1        0.0275
     21 H           6.0747    1.0473    0.0000 H       1  UNL1        0.0274
     22 H           5.6762    1.7376    0.0000 H       1  UNL1        0.0274
     23 H           5.6762   -0.4276    0.0000 H       1  UNL1        0.0269
     24 H           6.0747    0.2627    0.0000 H       1  UNL1        0.0269
     25 H           4.6350    2.8310    0.0000 H       1  UNL1        0.0238
     26 H           3.7881    3.0580    0.0000 H       1  UNL1        0.0238
     27 H           3.5611    2.2110    0.0000 H       1  UNL1        0.0238
     28 H           4.7881    3.0580    0.0000 H       1  UNL1        0.0572
     29 H           3.5981   -0.7250    0.0000 H       1  UNL1        0.0257
     30 H           5.5981   -1.9650    0.0000 H       1  UNL1        0.0257
     31 H           6.2181   -1.3450    0.0000 H       1  UNL1        0.0257
     32 H           5.5981   -0.7250    0.0000 H       1  UNL1        0.0257
     33 H           2.9781   -1.3450    0.0000 H       1  UNL1        0.0257
     34 H           3.5981   -1.9650    0.0000 H       1  UNL1        0.0257
     35 H           5.1350   -2.6550    0.0000 H       1  UNL1        0.2101
     36 H           1.6900    1.6919    0.0000 H       1  UNL1        0.0274
     37 H           1.4631    0.8450    0.0000 H       1  UNL1        0.0274
     38 H           2.3100    0.6181    0.0000 H       1  UNL1        0.0274
     39 H           3.4030    2.9650    0.0000 H       1  UNL1        0.0534
     40 H           2.3291    2.9650    0.0000 H       1  UNL1        0.0534
     41 H           6.4081    1.9841    0.0000 H       1  UNL1        0.0532
     42 H           6.4081    3.0580    0.0000 H       1  UNL1        0.0532
@<TRIPOS>BOND
     1     1     8    1
     2     1    35    1
     3     2     4    1
     4     2     6    1
     5     2     9    1
     6     2    11    1
     7     3     5    1
     8     3     7    1
     9     3     8    1
    10     3    17    1
    11     4     5    1
    12     4    10    1
    13     4    18    1
    14     5    19    1
    15     5    20    1
    16     6     7    1
    17     6    21    1
    18     6    22    1
    19     7    23    1
    20     7    24    1
    21     8    12    1
    22     8    13    1
    23     9    25    1
    24     9    26    1
    25     9    27    1
    26    10    14    1
    27    10    15    2
    28    11    16    2
    29    11    28    1
    30    12    30    1
    31    12    31    1
    32    12    32    1
    33    13    29    1
    34    13    33    1
    35    13    34    1
    36    14    36    1
    37    14    37    1
    38    14    38    1
    39    15    39    1
    40    15    40    1
    41    16    41    1
    42    16    42    1
