@<TRIPOS>MOLECULE
IMPHY009715
 39 41 0 0 0
SMALL
GASTEIGER

@<TRIPOS>ATOM
      1 C           3.6180   -0.3921    0.0000 C.3     1  UNL1        0.0003
      2 C           4.4271    0.1957    0.0000 C.3     1  UNL1       -0.0260
      3 C           2.8090    0.1957    0.0000 C.3     1  UNL1       -0.0186
      4 C           4.1180    1.1468    0.0000 C.3     1  UNL1       -0.0307
      5 C           3.1180    1.1468    0.0000 C.3     1  UNL1       -0.0411
      6 C           3.9277   -1.3367    0.0000 C.3     1  UNL1       -0.0340
      7 C           5.2298   -0.3907    0.0000 C.3     1  UNL1       -0.0486
      8 C           4.9218   -1.3359    0.0000 C.3     1  UNL1       -0.0494
      9 C           2.0063   -0.3907    0.0000 C.3     1  UNL1       -0.0285
     10 C           3.3084   -1.3367    0.0000 C.2     1  UNL1       -0.0807
     11 C           2.0000    0.7835    0.0000 C.3     1  UNL1       -0.0585
     12 C           2.3143   -1.3359    0.0000 C.2     1  UNL1       -0.0868
     13 C           4.1180    2.1468    0.0000 C.3     1  UNL1       -0.0595
     14 C           5.0691    1.4558    0.0000 C.3     1  UNL1       -0.0595
     15 C           3.3413   -2.1468    0.0000 C.3     1  UNL1       -0.0616
     16 H           5.1154    0.6944    0.0000 H       1  UNL1        0.0315
     17 H           3.1828    1.7634    0.0000 H       1  UNL1        0.0276
     18 H           2.5116    1.2757    0.0000 H       1  UNL1        0.0276
     19 H           4.2099   -1.8888    0.0000 H       1  UNL1        0.0307
     20 H           5.7958   -0.6437    0.0000 H       1  UNL1        0.0268
     21 H           5.5408    0.1456    0.0000 H       1  UNL1        0.0268
     22 H           4.8571   -1.9525    0.0000 H       1  UNL1        0.0268
     23 H           5.5282   -1.4649    0.0000 H       1  UNL1        0.0268
     24 H           1.6952    0.1456    0.0000 H       1  UNL1        0.0313
     25 H           1.4403   -0.6437    0.0000 H       1  UNL1        0.0313
     26 H           3.6720   -1.8389    0.0000 H       1  UNL1        0.0575
     27 H           2.3644    1.2851    0.0000 H       1  UNL1        0.0235
     28 H           1.4984    1.1479    0.0000 H       1  UNL1        0.0235
     29 H           1.6356    0.2819    0.0000 H       1  UNL1        0.0235
     30 H           1.9499   -1.8374    0.0000 H       1  UNL1        0.0569
     31 H           5.2607    0.8661    0.0000 H       1  UNL1        0.0235
     32 H           5.6588    1.6474    0.0000 H       1  UNL1        0.0235
     33 H           4.8775    2.0454    0.0000 H       1  UNL1        0.0235
     34 H           4.7380    2.1468    0.0000 H       1  UNL1        0.0235
     35 H           4.1180    2.7668    0.0000 H       1  UNL1        0.0235
     36 H           3.4980    2.1468    0.0000 H       1  UNL1        0.0235
     37 H           2.8391   -1.7832    0.0000 H       1  UNL1        0.0233
     38 H           2.9777   -2.6490    0.0000 H       1  UNL1        0.0233
     39 H           3.8435   -2.5103    0.0000 H       1  UNL1        0.0233
@<TRIPOS>BOND
     1     1     2    1
     2     1     3    1
     3     1     6    1
     4     1    10    1
     5     2     4    1
     6     2     7    1
     7     2    16    1
     8     3     5    1
     9     3     9    1
    10     3    11    1
    11     4     5    1
    12     4    13    1
    13     4    14    1
    14     5    17    1
    15     5    18    1
    16     6     8    1
    17     6    15    1
    18     6    19    1
    19     7     8    1
    20     7    20    1
    21     7    21    1
    22     8    22    1
    23     8    23    1
    24     9    12    1
    25     9    24    1
    26     9    25    1
    27    10    12    2
    28    10    26    1
    29    11    27    1
    30    11    28    1
    31    11    29    1
    32    12    30    1
    33    13    34    1
    34    13    35    1
    35    13    36    1
    36    14    31    1
    37    14    32    1
    38    14    33    1
    39    15    37    1
    40    15    38    1
    41    15    39    1
