@<TRIPOS>MOLECULE
IMPHY013627
 64 65 0 0 0
SMALL
GASTEIGER

@<TRIPOS>ATOM
      1 O           6.3301    6.4400    0.0000 O.3     1  UNL1       -0.3889
      2 O           8.9282    6.9400    0.0000 O.3     1  UNL1       -0.3866
      3 O           5.4641    4.9400    0.0000 O.3     1  UNL1       -0.3874
      4 O           4.5981    1.4400    0.0000 O.3     1  UNL1       -0.4880
      5 O           2.0000   -4.0600    0.0000 O.2     1  UNL1       -0.2702
      6 N           3.7320   -4.0600    0.0000 N.am    1  UNL1       -0.3110
      7 C           7.1962    5.9400    0.0000 C.3     1  UNL1        0.0860
      8 C           8.0622    6.4400    0.0000 C.3     1  UNL1        0.0863
      9 C           7.1962    4.9400    0.0000 C.3     1  UNL1        0.0058
     10 C           6.3301    4.4400    0.0000 C.3     1  UNL1        0.0785
     11 C           7.5622    7.3060    0.0000 C.3     1  UNL1       -0.0339
     12 C           8.5622    5.5740    0.0000 C.3     1  UNL1       -0.0339
     13 C           6.3301    3.4400    0.0000 C.2     1  UNL1       -0.0452
     14 C           5.4641    2.9400    0.0000 C.2     1  UNL1       -0.0457
     15 C           7.1962    2.9400    0.0000 C.3     1  UNL1       -0.0413
     16 C           5.4641    1.9400    0.0000 C.3     1  UNL1        0.1081
     17 C           4.5981   -2.5600    0.0000 C.3     1  UNL1       -0.0120
     18 C           4.5981   -1.5600    0.0000 C.ar    1  UNL1       -0.0457
     19 C           4.5981    0.4400    0.0000 C.ar    1  UNL1        0.1210
     20 C           3.7320   -3.0600    0.0000 C.3     1  UNL1        0.0159
     21 C           3.7320   -1.0600    0.0000 C.ar    1  UNL1       -0.0551
     22 C           5.4641   -1.0600    0.0000 C.ar    1  UNL1       -0.0551
     23 C           3.7320   -0.0600    0.0000 C.ar    1  UNL1       -0.0197
     24 C           5.4641   -0.0600    0.0000 C.ar    1  UNL1       -0.0197
     25 C           2.8660   -4.5600    0.0000 C.2     1  UNL1        0.2441
     26 C           2.8660   -5.5600    0.0000 C.ar    1  UNL1        0.0367
     27 C           2.0000   -6.0600    0.0000 C.ar    1  UNL1       -0.0496
     28 C           3.7320   -6.0600    0.0000 C.ar    1  UNL1       -0.0496
     29 C           2.0000   -7.0600    0.0000 C.ar    1  UNL1       -0.0610
     30 C           3.7320   -7.0600    0.0000 C.ar    1  UNL1       -0.0610
     31 C           2.8660   -7.5600    0.0000 C.ar    1  UNL1       -0.0617
     32 H           6.6592    5.6300    0.0000 H       1  UNL1        0.0623
     33 H           7.4082    4.3574    0.0000 H       1  UNL1        0.0319
     34 H           7.8067    5.0477    0.0000 H       1  UNL1        0.0319
     35 H           5.7932    4.1300    0.0000 H       1  UNL1        0.0641
     36 H           8.0991    7.6160    0.0000 H       1  UNL1        0.0258
     37 H           7.2522    7.8430    0.0000 H       1  UNL1        0.0258
     38 H           7.0252    6.9960    0.0000 H       1  UNL1        0.0258
     39 H           8.0252    5.2640    0.0000 H       1  UNL1        0.0258
     40 H           8.8722    5.0370    0.0000 H       1  UNL1        0.0258
     41 H           9.0991    5.8840    0.0000 H       1  UNL1        0.0258
     42 H           6.3301    7.0600    0.0000 H       1  UNL1        0.2099
     43 H           8.9282    7.5600    0.0000 H       1  UNL1        0.2102
     44 H           4.9272    3.2500    0.0000 H       1  UNL1        0.0606
     45 H           6.8862    2.4031    0.0000 H       1  UNL1        0.0275
     46 H           7.7331    2.6300    0.0000 H       1  UNL1        0.0275
     47 H           7.5062    3.4769    0.0000 H       1  UNL1        0.0275
     48 H           5.4641    5.5600    0.0000 H       1  UNL1        0.2102
     49 H           5.6762    1.3574    0.0000 H       1  UNL1        0.0742
     50 H           6.0747    2.0477    0.0000 H       1  UNL1        0.0742
     51 H           4.8101   -3.1426    0.0000 H       1  UNL1        0.0328
     52 H           5.2087   -2.4523    0.0000 H       1  UNL1        0.0328
     53 H           3.5200   -2.4774    0.0000 H       1  UNL1        0.0465
     54 H           3.1215   -3.1677    0.0000 H       1  UNL1        0.0465
     55 H           3.1951   -1.3700    0.0000 H       1  UNL1        0.0621
     56 H           6.0010   -1.3700    0.0000 H       1  UNL1        0.0621
     57 H           3.1951    0.2500    0.0000 H       1  UNL1        0.0654
     58 H           6.0010    0.2500    0.0000 H       1  UNL1        0.0654
     59 H           4.2690   -4.3700    0.0000 H       1  UNL1        0.1490
     60 H           1.4631   -5.7500    0.0000 H       1  UNL1        0.0625
     61 H           4.2690   -5.7500    0.0000 H       1  UNL1        0.0625
     62 H           1.4631   -7.3700    0.0000 H       1  UNL1        0.0618
     63 H           4.2690   -7.3700    0.0000 H       1  UNL1        0.0618
     64 H           2.8660   -8.1800    0.0000 H       1  UNL1        0.0618
@<TRIPOS>BOND
     1     1     7    1
     2     1    42    1
     3     2     8    1
     4     2    43    1
     5     3    10    1
     6     3    48    1
     7     4    16    1
     8     4    19    1
     9     5    25    2
    10     6    20    1
    11     6    25   am
    12     6    59    1
    13     7     8    1
    14     7     9    1
    15     7    32    1
    16     8    11    1
    17     8    12    1
    18     9    10    1
    19     9    33    1
    20     9    34    1
    21    10    13    1
    22    10    35    1
    23    11    36    1
    24    11    37    1
    25    11    38    1
    26    12    39    1
    27    12    40    1
    28    12    41    1
    29    13    14    2
    30    13    15    1
    31    14    16    1
    32    14    44    1
    33    15    45    1
    34    15    46    1
    35    15    47    1
    36    16    49    1
    37    16    50    1
    38    17    18    1
    39    17    20    1
    40    17    51    1
    41    17    52    1
    42    18    21   ar
    43    18    22   ar
    44    19    23   ar
    45    19    24   ar
    46    20    53    1
    47    20    54    1
    48    21    23   ar
    49    21    55    1
    50    22    24   ar
    51    22    56    1
    52    23    57    1
    53    24    58    1
    54    25    26    1
    55    26    27   ar
    56    26    28   ar
    57    27    29   ar
    58    27    60    1
    59    28    30   ar
    60    28    61    1
    61    29    31   ar
    62    29    62    1
    63    30    31   ar
    64    30    63    1
    65    31    64    1
