@<TRIPOS>MOLECULE
IMPHY017053
 18 17 0 0 0
SMALL
GASTEIGER

@<TRIPOS>ATOM
      1 S           7.1962   -0.4400    0.0000 S.3     1  UNL1       -0.1638
      2 S           2.0000    1.5600    0.0000 S.2     1  UNL1        0.0206
      3 N           3.7320    0.5600    0.0000 N.2     1  UNL1       -0.2055
      4 C           5.4641   -0.4400    0.0000 C.3     1  UNL1       -0.0240
      5 C           6.3301   -0.9400    0.0000 C.3     1  UNL1       -0.0031
      6 C           4.5981   -0.9400    0.0000 C.2     1  UNL1       -0.0644
      7 C           8.0622   -0.9400    0.0000 C.3     1  UNL1       -0.0181
      8 C           3.7320   -0.4400    0.0000 C.2     1  UNL1        0.0341
      9 C           2.8660    1.0600    0.0000 C.1     1  UNL1        0.0408
     10 H           5.8626    0.0349    0.0000 H       1  UNL1        0.0316
     11 H           5.0656    0.0349    0.0000 H       1  UNL1        0.0316
     12 H           5.9316   -1.4150    0.0000 H       1  UNL1        0.0379
     13 H           6.7287   -1.4150    0.0000 H       1  UNL1        0.0379
     14 H           4.5981   -1.5600    0.0000 H       1  UNL1        0.0587
     15 H           7.7522   -1.4769    0.0000 H       1  UNL1        0.0340
     16 H           8.5991   -1.2500    0.0000 H       1  UNL1        0.0340
     17 H           8.3722   -0.4031    0.0000 H       1  UNL1        0.0340
     18 H           3.1951   -0.7500    0.0000 H       1  UNL1        0.0834
@<TRIPOS>BOND
     1     1     5    1
     2     1     7    1
     3     2     9    2
     4     3     8    1
     5     3     9    2
     6     4     5    1
     7     4     6    1
     8     4    10    1
     9     4    11    1
    10     5    12    1
    11     5    13    1
    12     6     8    2
    13     6    14    1
    14     7    15    1
    15     7    16    1
    16     7    17    1
    17     8    18    1
