@<TRIPOS>MOLECULE
IMPHY004841
 38 40 0 0 0
SMALL
GASTEIGER

@<TRIPOS>ATOM
      1 O           6.0682   -0.0950    0.0000 O.2     1  UNL1       -0.4471
      2 O           7.8003    1.9050    0.0000 O.3     1  UNL1       -0.4883
      3 O           4.3198   -1.1296    0.0000 O.3     1  UNL1       -0.4885
      4 O           6.0682    2.9050    0.0000 O.2     1  UNL1       -0.2831
      5 O           2.5381   -0.1192    0.0000 O.3     1  UNL1       -0.5032
      6 O           8.6663   -2.5950    0.0000 O.3     1  UNL1       -0.5033
      7 O          10.3984   -1.5950    0.0000 O.3     1  UNL1       -0.5033
      8 C           5.2022    1.4050    0.0000 C.ar    1  UNL1        0.0716
      9 C           5.2022    0.4050    0.0000 C.ar    1  UNL1        0.1846
     10 C           6.9343    0.4050    0.0000 C.ar    1  UNL1        0.1811
     11 C           6.9343    1.4050    0.0000 C.ar    1  UNL1        0.2106
     12 C           6.0682    1.9050    0.0000 C.ar    1  UNL1        0.2347
     13 C           7.8003   -0.0950    0.0000 C.ar    1  UNL1        0.0247
     14 C           4.3083   -0.1297    0.0000 C.ar    1  UNL1        0.2046
     15 C           4.3083    1.9397    0.0000 C.ar    1  UNL1       -0.0436
     16 C           3.4022    0.3842    0.0000 C.ar    1  UNL1        0.1622
     17 C           3.4022    1.4258    0.0000 C.ar    1  UNL1       -0.0156
     18 C           7.8003   -1.0950    0.0000 C.ar    1  UNL1       -0.0057
     19 C           8.6663    0.4050    0.0000 C.ar    1  UNL1       -0.0473
     20 C           8.6663   -1.5950    0.0000 C.ar    1  UNL1        0.1589
     21 C           9.5323   -0.0950    0.0000 C.ar    1  UNL1       -0.0159
     22 C           9.5323   -1.0950    0.0000 C.ar    1  UNL1        0.1583
     23 C           7.8003    2.9050    0.0000 C.3     1  UNL1        0.0791
     24 C           3.4597   -1.6396    0.0000 C.3     1  UNL1        0.0791
     25 H           4.3154    2.5596    0.0000 H       1  UNL1        0.0627
     26 H           2.8665    1.7379    0.0000 H       1  UNL1        0.0655
     27 H           7.2634   -1.4050    0.0000 H       1  UNL1        0.0662
     28 H           8.6663    1.0250    0.0000 H       1  UNL1        0.0626
     29 H          10.0693    0.2150    0.0000 H       1  UNL1        0.0655
     30 H           8.4203    2.9050    0.0000 H       1  UNL1        0.0660
     31 H           7.8003    3.5250    0.0000 H       1  UNL1        0.0660
     32 H           7.1803    2.9050    0.0000 H       1  UNL1        0.0660
     33 H           2.0000    0.1888    0.0000 H       1  UNL1        0.2923
     34 H           3.1435   -1.1063    0.0000 H       1  UNL1        0.0660
     35 H           2.9263   -1.9558    0.0000 H       1  UNL1        0.0660
     36 H           3.7758   -2.1729    0.0000 H       1  UNL1        0.0660
     37 H           9.2033   -2.9050    0.0000 H       1  UNL1        0.2923
     38 H          10.9353   -1.2850    0.0000 H       1  UNL1        0.2923
@<TRIPOS>BOND
     1     1     9   ar
     2     1    10   ar
     3     2    11    1
     4     2    23    1
     5     3    14    1
     6     3    24    1
     7     4    12    2
     8     5    16    1
     9     5    33    1
    10     6    20    1
    11     6    37    1
    12     7    22    1
    13     7    38    1
    14     8     9   ar
    15     8    12   ar
    16     8    15   ar
    17     9    14   ar
    18    10    11   ar
    19    10    13    1
    20    11    12   ar
    21    13    18   ar
    22    13    19   ar
    23    14    16   ar
    24    15    17   ar
    25    15    25    1
    26    16    17   ar
    27    17    26    1
    28    18    20   ar
    29    18    27    1
    30    19    21   ar
    31    19    28    1
    32    20    22   ar
    33    21    22   ar
    34    21    29    1
    35    23    30    1
    36    23    31    1
    37    23    32    1
    38    24    34    1
    39    24    35    1
    40    24    36    1
