@<TRIPOS>MOLECULE
IMPHY009257
 58 61 0 0 0
SMALL
GASTEIGER

@<TRIPOS>ATOM
      1 O           5.4641   -1.0950    0.0000 O.3     1  UNL1       -0.3609
      2 O           2.8660   -0.5950    0.0000 O.3     1  UNL1       -0.3862
      3 O           2.8660   -2.5950    0.0000 O.3     1  UNL1       -0.3865
      4 O           4.5981   -3.5950    0.0000 O.3     1  UNL1       -0.3865
      5 O           6.3580    0.3703    0.0000 O.2     1  UNL1       -0.4540
      6 O           6.3301   -3.5950    0.0000 O.3     1  UNL1       -0.3924
      7 O           2.8660    0.4050    0.0000 O.3     1  UNL1       -0.4945
      8 O           4.5981    3.4050    0.0000 O.3     1  UNL1       -0.4942
      9 O           6.3465    3.4396    0.0000 O.2     1  UNL1       -0.2869
     10 O           8.9846   -2.1225    0.0000 O.3     1  UNL1       -0.5033
     11 O          10.7205   -1.1292    0.0000 O.3     1  UNL1       -0.5033
     12 C           3.7320   -1.0950    0.0000 C.3     1  UNL1        0.1139
     13 C           4.5981   -0.5950    0.0000 C.3     1  UNL1        0.1193
     14 C           3.7320   -2.0950    0.0000 C.3     1  UNL1        0.1121
     15 C           4.5981   -2.5950    0.0000 C.3     1  UNL1        0.1117
     16 C           5.4641   -2.0950    0.0000 C.3     1  UNL1        0.1108
     17 C           4.5981    0.4050    0.0000 C.ar    1  UNL1        0.0684
     18 C           6.3301   -2.5950    0.0000 C.3     1  UNL1        0.0729
     19 C           5.4641    0.9050    0.0000 C.ar    1  UNL1        0.1520
     20 C           3.7320    0.9050    0.0000 C.ar    1  UNL1        0.1328
     21 C           5.4641    1.9050    0.0000 C.ar    1  UNL1        0.1061
     22 C           3.7320    1.9050    0.0000 C.ar    1  UNL1        0.0231
     23 C           4.5981    2.4050    0.0000 C.ar    1  UNL1        0.1379
     24 C           6.3580    2.4397    0.0000 C.ar    1  UNL1        0.1966
     25 C           7.2641    0.8842    0.0000 C.ar    1  UNL1        0.1394
     26 C           7.2641    1.9258    0.0000 C.ar    1  UNL1        0.0288
     27 C           8.1282    0.3808    0.0000 C.ar    1  UNL1        0.0211
     28 C           2.0000    0.9050    0.0000 C.3     1  UNL1        0.0788
     29 C           3.7320    3.9050    0.0000 C.3     1  UNL1        0.0788
     30 C           8.1244   -0.6191    0.0000 C.ar    1  UNL1       -0.0059
     31 C           8.9962    0.8775    0.0000 C.ar    1  UNL1       -0.0474
     32 C           8.9884   -1.1225    0.0000 C.ar    1  UNL1        0.1589
     33 C           9.8602    0.3742    0.0000 C.ar    1  UNL1       -0.0159
     34 C           9.8564   -0.6258    0.0000 C.ar    1  UNL1        0.1583
     35 H           3.7320   -0.4750    0.0000 H       1  UNL1        0.0649
     36 H           5.3342   -0.1700    0.0000 H       1  UNL1        0.0676
     37 H           3.7320   -2.7150    0.0000 H       1  UNL1        0.0647
     38 H           5.1350   -2.9050    0.0000 H       1  UNL1        0.0647
     39 H           6.0010   -1.7850    0.0000 H       1  UNL1        0.0646
     40 H           6.9407   -2.7027    0.0000 H       1  UNL1        0.0584
     41 H           6.5422   -2.0124    0.0000 H       1  UNL1        0.0584
     42 H           2.3291   -0.9050    0.0000 H       1  UNL1        0.2100
     43 H           2.8660   -3.2150    0.0000 H       1  UNL1        0.2100
     44 H           4.0611   -3.9050    0.0000 H       1  UNL1        0.2100
     45 H           3.1951    2.2150    0.0000 H       1  UNL1        0.0691
     46 H           6.8671   -3.9050    0.0000 H       1  UNL1        0.2095
     47 H           7.7998    2.2379    0.0000 H       1  UNL1        0.0693
     48 H           2.3100    1.4419    0.0000 H       1  UNL1        0.0660
     49 H           1.4631    1.2150    0.0000 H       1  UNL1        0.0660
     50 H           1.6900    0.3681    0.0000 H       1  UNL1        0.0660
     51 H           4.0420    4.4419    0.0000 H       1  UNL1        0.0660
     52 H           3.1951    4.2150    0.0000 H       1  UNL1        0.0660
     53 H           3.4220    3.3681    0.0000 H       1  UNL1        0.0660
     54 H           7.5862   -0.9271    0.0000 H       1  UNL1        0.0662
     55 H           8.9985    1.4975    0.0000 H       1  UNL1        0.0626
     56 H          10.3984    0.6821    0.0000 H       1  UNL1        0.0655
     57 H           9.5203   -2.4345    0.0000 H       1  UNL1        0.2923
     58 H          11.2586   -0.8212    0.0000 H       1  UNL1        0.2923
@<TRIPOS>BOND
     1     1    13    1
     2     1    16    1
     3     2    12    1
     4     2    42    1
     5    14     3    1
     6     3    43    1
     7    15     4    1
     8     4    44    1
     9     5    19   ar
    10     5    25   ar
    11     6    18    1
    12     6    46    1
    13     7    20    1
    14     7    28    1
    15     8    23    1
    16     8    29    1
    17     9    24    2
    18    10    32    1
    19    10    57    1
    20    11    34    1
    21    11    58    1
    22    12    13    1
    23    12    14    1
    24    12    35    1
    25    13    17    1
    26    13    36    1
    27    14    15    1
    28    14    37    1
    29    15    16    1
    30    15    38    1
    31    16    18    1
    32    16    39    1
    33    17    19   ar
    34    17    20   ar
    35    18    40    1
    36    18    41    1
    37    19    21   ar
    38    20    22   ar
    39    21    23   ar
    40    21    24   ar
    41    22    23   ar
    42    22    45    1
    43    24    26   ar
    44    25    26   ar
    45    25    27    1
    46    26    47    1
    47    27    30   ar
    48    27    31   ar
    49    28    48    1
    50    28    49    1
    51    28    50    1
    52    29    51    1
    53    29    52    1
    54    29    53    1
    55    30    32   ar
    56    30    54    1
    57    31    33   ar
    58    31    55    1
    59    32    34   ar
    60    33    34   ar
    61    33    56    1
