@<TRIPOS>MOLECULE
IMPHY015638
 30 29 0 0 0
SMALL
GASTEIGER

@<TRIPOS>ATOM
      1 O           3.7320    0.4400    0.0000 O.3     1  UNL1       -0.4645
      2 O           2.8660   -1.0600    0.0000 O.2     1  UNL1       -0.2512
      3 C           8.9282    0.4400    0.0000 C.3     1  UNL1       -0.0499
      4 C           8.0622   -0.0600    0.0000 C.3     1  UNL1       -0.0348
      5 C           9.7942   -0.0600    0.0000 C.3     1  UNL1       -0.0556
      6 C           7.1962    0.4400    0.0000 C.2     1  UNL1       -0.0878
      7 C           5.4641    0.4400    0.0000 C.3     1  UNL1       -0.0003
      8 C           6.3301   -0.0600    0.0000 C.2     1  UNL1       -0.0847
      9 C          10.6603    0.4400    0.0000 C.3     1  UNL1       -0.0653
     10 C           4.5981   -0.0600    0.0000 C.3     1  UNL1        0.0958
     11 C           2.8660   -0.0600    0.0000 C.2     1  UNL1        0.3040
     12 C           2.0000    0.4400    0.0000 C.3     1  UNL1        0.0332
     13 H           9.3267    0.9149    0.0000 H       1  UNL1        0.0268
     14 H           8.5297    0.9149    0.0000 H       1  UNL1        0.0268
     15 H           7.6636   -0.5349    0.0000 H       1  UNL1        0.0307
     16 H           8.4607   -0.5349    0.0000 H       1  UNL1        0.0307
     17 H           9.3957   -0.5349    0.0000 H       1  UNL1        0.0263
     18 H          10.1928   -0.5349    0.0000 H       1  UNL1        0.0263
     19 H           7.1962    1.0600    0.0000 H       1  UNL1        0.0569
     20 H           5.8626    0.9149    0.0000 H       1  UNL1        0.0340
     21 H           5.0656    0.9149    0.0000 H       1  UNL1        0.0340
     22 H           6.3301   -0.6800    0.0000 H       1  UNL1        0.0570
     23 H          10.9703   -0.0969    0.0000 H       1  UNL1        0.0230
     24 H          11.1972    0.7500    0.0000 H       1  UNL1        0.0230
     25 H          10.3503    0.9769    0.0000 H       1  UNL1        0.0230
     26 H           4.1996   -0.5349    0.0000 H       1  UNL1        0.0700
     27 H           4.9966   -0.5349    0.0000 H       1  UNL1        0.0700
     28 H           2.3100    0.9769    0.0000 H       1  UNL1        0.0342
     29 H           1.4631    0.7500    0.0000 H       1  UNL1        0.0342
     30 H           1.6900   -0.0969    0.0000 H       1  UNL1        0.0342
@<TRIPOS>BOND
     1     1    10    1
     2     1    11    1
     3     2    11    2
     4     3     4    1
     5     3     5    1
     6     3    13    1
     7     3    14    1
     8     4     6    1
     9     4    15    1
    10     4    16    1
    11     5     9    1
    12     5    17    1
    13     5    18    1
    14     6     8    2
    15     6    19    1
    16     7     8    1
    17     7    10    1
    18     7    20    1
    19     7    21    1
    20     8    22    1
    21     9    23    1
    22     9    24    1
    23     9    25    1
    24    10    26    1
    25    10    27    1
    26    11    12    1
    27    12    28    1
    28    12    29    1
    29    12    30    1
