@<TRIPOS>MOLECULE
IMPHY008212
 86 90 0 0 0
SMALL
GASTEIGER

@<TRIPOS>ATOM
      1 O          14.7415   -3.8761    0.0000 O.3     1  UNL1       -0.4796
      2 O          14.3843   -0.5718    0.0000 O.3     1  UNL1       -0.4608
      3 O          12.9292   -5.0713    0.0000 O.3     1  UNL1       -0.4914
      4 O          18.3251   -4.8034    0.0000 O.3     1  UNL1       -0.4914
      5 O          19.3251   -3.0713    0.0000 O.3     1  UNL1       -0.5033
      6 O          15.6735    0.5850    0.0000 O.2     1  UNL1       -0.2456
      7 O           8.5991   -2.5713    0.0000 O.3     1  UNL1       -0.4574
      8 O          13.6234    5.4632    0.0000 O.3     1  UNL1       -0.4914
      9 O           7.7331   -1.0713    0.0000 O.2     1  UNL1       -0.2456
     10 O          11.6664    5.0508    0.0000 O.3     1  UNL1       -0.5033
     11 O           2.5369   -4.0713    0.0000 O.3     1  UNL1       -0.5068
     12 C          14.7415   -2.2666    0.0000 C.3     1  UNL1        0.0631
     13 C          15.3251   -3.0713    0.0000 C.3     1  UNL1        0.1354
     14 C          13.7953   -2.5713    0.0000 C.ar    1  UNL1        0.0087
     15 C          13.7953   -3.5713    0.0000 C.ar    1  UNL1        0.1665
     16 C          15.0521   -1.3161    0.0000 C.3     1  UNL1        0.1034
     17 C          16.3251   -3.0713    0.0000 C.ar    1  UNL1       -0.0030
     18 C          12.9292   -2.0713    0.0000 C.ar    1  UNL1       -0.0472
     19 C          12.9292   -4.0713    0.0000 C.ar    1  UNL1        0.1624
     20 C          12.0632   -2.5713    0.0000 C.ar    1  UNL1       -0.0213
     21 C          12.0632   -3.5713    0.0000 C.ar    1  UNL1       -0.0091
     22 C          16.8251   -3.9374    0.0000 C.ar    1  UNL1       -0.0096
     23 C          16.8251   -2.2053    0.0000 C.ar    1  UNL1       -0.0514
     24 C          17.8251   -3.9374    0.0000 C.ar    1  UNL1        0.1616
     25 C          17.8251   -2.2053    0.0000 C.ar    1  UNL1       -0.0161
     26 C          11.1972   -2.0713    0.0000 C.2     1  UNL1       -0.0552
     27 C          18.3251   -3.0713    0.0000 C.ar    1  UNL1        0.1585
     28 C          14.6950    0.3787    0.0000 C.2     1  UNL1        0.3320
     29 C          12.0632   -5.5713    0.0000 C.3     1  UNL1        0.0790
     30 C          10.3312   -2.5713    0.0000 C.2     1  UNL1       -0.0465
     31 C          14.0271    1.1230    0.0000 C.2     1  UNL1        0.0231
     32 C           9.4651   -2.0713    0.0000 C.3     1  UNL1        0.1113
     33 C          17.8251   -5.6694    0.0000 C.3     1  UNL1        0.0790
     34 C          14.3378    2.0736    0.0000 C.2     1  UNL1       -0.0477
     35 C          13.6699    2.8179    0.0000 C.ar    1  UNL1       -0.0211
     36 C          13.9806    3.7684    0.0000 C.ar    1  UNL1       -0.0092
     37 C          12.6914    2.6116    0.0000 C.ar    1  UNL1       -0.0509
     38 C           7.7331   -2.0713    0.0000 C.2     1  UNL1        0.3322
     39 C          13.3128    4.5127    0.0000 C.ar    1  UNL1        0.1618
     40 C          12.0236    3.3559    0.0000 C.ar    1  UNL1       -0.0160
     41 C          12.3343    4.3065    0.0000 C.ar    1  UNL1        0.1585
     42 C           6.8671   -2.5713    0.0000 C.2     1  UNL1        0.0231
     43 C           6.0010   -2.0713    0.0000 C.2     1  UNL1       -0.0478
     44 C           5.1350   -2.5713    0.0000 C.ar    1  UNL1       -0.0246
     45 C          14.6019    5.6694    0.0000 C.3     1  UNL1        0.0790
     46 C           4.2690   -2.0713    0.0000 C.ar    1  UNL1       -0.0511
     47 C           5.1350   -3.5713    0.0000 C.ar    1  UNL1       -0.0511
     48 C           3.4030   -2.5713    0.0000 C.ar    1  UNL1       -0.0196
     49 C           4.2690   -4.0713    0.0000 C.ar    1  UNL1       -0.0196
     50 C           3.4030   -3.5713    0.0000 C.ar    1  UNL1        0.1169
     51 H          14.3040   -1.8273    0.0000 H       1  UNL1        0.0423
     52 H          15.6068   -3.6236    0.0000 H       1  UNL1        0.0792
     53 H          15.5991   -1.6081    0.0000 H       1  UNL1        0.0705
     54 H          15.4347   -0.8282    0.0000 H       1  UNL1        0.0705
     55 H          12.9292   -1.4513    0.0000 H       1  UNL1        0.0627
     56 H          11.5263   -3.8813    0.0000 H       1  UNL1        0.0661
     57 H          16.5151   -4.4743    0.0000 H       1  UNL1        0.0659
     58 H          16.5151   -1.6684    0.0000 H       1  UNL1        0.0623
     59 H          18.1351   -1.6684    0.0000 H       1  UNL1        0.0655
     60 H          11.1972   -1.4513    0.0000 H       1  UNL1        0.0621
     61 H          11.7532   -5.0344    0.0000 H       1  UNL1        0.0660
     62 H          11.5263   -5.8813    0.0000 H       1  UNL1        0.0660
     63 H          12.3732   -6.1083    0.0000 H       1  UNL1        0.0660
     64 H          10.3312   -3.1913    0.0000 H       1  UNL1        0.0606
     65 H          13.4204    0.9952    0.0000 H       1  UNL1        0.0689
     66 H          19.6351   -2.5344    0.0000 H       1  UNL1        0.2923
     67 H           9.8637   -1.5964    0.0000 H       1  UNL1        0.0743
     68 H           9.0666   -1.5964    0.0000 H       1  UNL1        0.0743
     69 H          17.2882   -5.3594    0.0000 H       1  UNL1        0.0660
     70 H          17.5151   -6.2063    0.0000 H       1  UNL1        0.0660
     71 H          18.3620   -5.9794    0.0000 H       1  UNL1        0.0660
     72 H          14.9445    2.2014    0.0000 H       1  UNL1        0.0626
     73 H          14.5873    3.8962    0.0000 H       1  UNL1        0.0661
     74 H          12.4988    2.0223    0.0000 H       1  UNL1        0.0625
     75 H          11.4169    3.2281    0.0000 H       1  UNL1        0.0655
     76 H           6.8671   -3.1913    0.0000 H       1  UNL1        0.0689
     77 H           6.0010   -1.4513    0.0000 H       1  UNL1        0.0626
     78 H          11.0597    4.9229    0.0000 H       1  UNL1        0.2923
     79 H          14.7298    5.0627    0.0000 H       1  UNL1        0.0660
     80 H          15.2086    5.7973    0.0000 H       1  UNL1        0.0660
     81 H          14.4741    6.2761    0.0000 H       1  UNL1        0.0660
     82 H           4.2690   -1.4513    0.0000 H       1  UNL1        0.0625
     83 H           5.6720   -3.8813    0.0000 H       1  UNL1        0.0625
     84 H           2.8660   -2.2613    0.0000 H       1  UNL1        0.0654
     85 H           4.2690   -4.6913    0.0000 H       1  UNL1        0.0654
     86 H           2.0000   -3.7613    0.0000 H       1  UNL1        0.2921
@<TRIPOS>BOND
     1     1    13    1
     2     1    15    1
     3     2    16    1
     4     2    28    1
     5     3    19    1
     6     3    29    1
     7     4    24    1
     8     4    33    1
     9     5    27    1
    10     5    66    1
    11     6    28    2
    12     7    32    1
    13     7    38    1
    14     8    39    1
    15     8    45    1
    16     9    38    2
    17    10    41    1
    18    10    78    1
    19    11    50    1
    20    11    86    1
    21    12    13    1
    22    12    14    1
    23    12    16    1
    24    12    51    1
    25    13    17    1
    26    13    52    1
    27    14    15   ar
    28    14    18   ar
    29    15    19   ar
    30    16    53    1
    31    16    54    1
    32    17    22   ar
    33    17    23   ar
    34    18    20   ar
    35    18    55    1
    36    19    21   ar
    37    20    21   ar
    38    20    26    1
    39    21    56    1
    40    22    24   ar
    41    22    57    1
    42    23    25   ar
    43    23    58    1
    44    24    27   ar
    45    25    27   ar
    46    25    59    1
    47    26    30    2
    48    26    60    1
    49    28    31    1
    50    29    61    1
    51    29    62    1
    52    29    63    1
    53    30    32    1
    54    30    64    1
    55    31    34    2
    56    31    65    1
    57    32    67    1
    58    32    68    1
    59    33    69    1
    60    33    70    1
    61    33    71    1
    62    34    35    1
    63    34    72    1
    64    35    36   ar
    65    35    37   ar
    66    36    39   ar
    67    36    73    1
    68    37    40   ar
    69    37    74    1
    70    38    42    1
    71    39    41   ar
    72    40    41   ar
    73    40    75    1
    74    42    43    2
    75    42    76    1
    76    43    44    1
    77    43    77    1
    78    44    46   ar
    79    44    47   ar
    80    45    79    1
    81    45    80    1
    82    45    81    1
    83    46    48   ar
    84    46    82    1
    85    47    49   ar
    86    47    83    1
    87    48    50   ar
    88    48    84    1
    89    49    50   ar
    90    49    85    1
