@<TRIPOS>MOLECULE
IMPHY007097
 42 43 0 0 0
SMALL
GASTEIGER

@<TRIPOS>ATOM
      1 O           9.7942    2.3450    0.0000 O.3     1  UNL1       -0.4914
      2 O           2.8660   -3.6550    0.0000 O.3     1  UNL1       -0.4914
      3 O           9.7942    4.3450    0.0000 O.3     1  UNL1       -0.5033
      4 O           4.5981   -4.6550    0.0000 O.3     1  UNL1       -0.5033
      5 O           4.5981    1.3450    0.0000 O.2     1  UNL1       -0.2879
      6 C           4.5981   -1.6550    0.0000 C.ar    1  UNL1       -0.0212
      7 C           7.1962    2.8450    0.0000 C.ar    1  UNL1       -0.0212
      8 C           3.7320   -2.1550    0.0000 C.ar    1  UNL1       -0.0092
      9 C           8.0622    2.3450    0.0000 C.ar    1  UNL1       -0.0092
     10 C           3.7320   -3.1550    0.0000 C.ar    1  UNL1        0.1618
     11 C           8.9282    2.8450    0.0000 C.ar    1  UNL1        0.1618
     12 C           7.1962    3.8450    0.0000 C.ar    1  UNL1       -0.0509
     13 C           5.4641   -2.1550    0.0000 C.ar    1  UNL1       -0.0509
     14 C           4.5981   -3.6550    0.0000 C.ar    1  UNL1        0.1585
     15 C           8.9282    3.8450    0.0000 C.ar    1  UNL1        0.1585
     16 C           4.5981   -0.6550    0.0000 C.2     1  UNL1       -0.0509
     17 C           6.3301    2.3450    0.0000 C.2     1  UNL1       -0.0509
     18 C           5.4641   -3.1550    0.0000 C.ar    1  UNL1       -0.0160
     19 C           8.0622    4.3450    0.0000 C.ar    1  UNL1       -0.0160
     20 C           5.4641   -0.1550    0.0000 C.2     1  UNL1       -0.0144
     21 C           6.3301    1.3450    0.0000 C.2     1  UNL1       -0.0144
     22 C           5.4641    0.8450    0.0000 C.2     1  UNL1        0.1790
     23 C           2.0000   -3.1550    0.0000 C.3     1  UNL1        0.0790
     24 C          10.6603    2.8450    0.0000 C.3     1  UNL1        0.0790
     25 H           3.1951   -1.8450    0.0000 H       1  UNL1        0.0661
     26 H           8.0622    1.7250    0.0000 H       1  UNL1        0.0661
     27 H           6.0010   -1.8450    0.0000 H       1  UNL1        0.0625
     28 H           6.6592    4.1550    0.0000 H       1  UNL1        0.0625
     29 H           4.0611   -0.3450    0.0000 H       1  UNL1        0.0625
     30 H           5.7932    2.6550    0.0000 H       1  UNL1        0.0625
     31 H           6.0010   -3.4650    0.0000 H       1  UNL1        0.0655
     32 H           8.0622    4.9650    0.0000 H       1  UNL1        0.0655
     33 H           6.0010   -0.4650    0.0000 H       1  UNL1        0.0656
     34 H           6.8671    1.0350    0.0000 H       1  UNL1        0.0656
     35 H           9.7942    4.9650    0.0000 H       1  UNL1        0.2923
     36 H           5.1350   -4.9650    0.0000 H       1  UNL1        0.2923
     37 H           2.3100   -2.6181    0.0000 H       1  UNL1        0.0660
     38 H          10.9703    2.3081    0.0000 H       1  UNL1        0.0660
     39 H          11.1972    3.1550    0.0000 H       1  UNL1        0.0660
     40 H          10.3503    3.3819    0.0000 H       1  UNL1        0.0660
     41 H           1.4631   -2.8450    0.0000 H       1  UNL1        0.0660
     42 H           1.6900   -3.6919    0.0000 H       1  UNL1        0.0660
@<TRIPOS>BOND
     1     1    11    1
     2     1    24    1
     3     2    10    1
     4     2    23    1
     5     3    15    1
     6     3    35    1
     7     4    14    1
     8     4    36    1
     9     5    22    2
    10     6     8   ar
    11     6    13   ar
    12     6    16    1
    13     7     9   ar
    14     7    12   ar
    15     7    17    1
    16     8    10   ar
    17     8    25    1
    18     9    11   ar
    19     9    26    1
    20    10    14   ar
    21    11    15   ar
    22    12    19   ar
    23    12    28    1
    24    13    18   ar
    25    13    27    1
    26    14    18   ar
    27    15    19   ar
    28    16    20    2
    29    16    29    1
    30    17    21    2
    31    17    30    1
    32    18    31    1
    33    19    32    1
    34    20    22    1
    35    20    33    1
    36    21    22    1
    37    21    34    1
    38    23    37    1
    39    23    41    1
    40    23    42    1
    41    24    38    1
    42    24    39    1
    43    24    40    1
