@<TRIPOS>MOLECULE
IMPHY009900
 36 37 0 0 0
SMALL
GASTEIGER

@<TRIPOS>ATOM
      1 O           3.4511    3.2694    0.0000 O.2     1  UNL1       -0.2974
      2 C           2.9511    0.7306    0.0000 C.3     1  UNL1        0.0051
      3 C           3.9511    0.7306    0.0000 C.3     1  UNL1       -0.0185
      4 C           2.6420    1.6816    0.0000 C.3     1  UNL1        0.0157
      5 C           4.2601    1.6816    0.0000 C.3     1  UNL1        0.0118
      6 C           3.4511    2.2694    0.0000 C.2     1  UNL1        0.1347
      7 C           2.9511   -0.2694    0.0000 C.ar    1  UNL1       -0.0405
      8 C           2.0000    0.4216    0.0000 C.3     1  UNL1       -0.0546
      9 C           4.9021    0.4216    0.0000 C.3     1  UNL1       -0.0586
     10 C           4.4511   -0.1354    0.0000 C.3     1  UNL1       -0.0586
     11 C           3.8171   -0.7694    0.0000 C.ar    1  UNL1       -0.0578
     12 C           2.0850   -0.7694    0.0000 C.ar    1  UNL1       -0.0578
     13 C           3.8171   -1.7694    0.0000 C.ar    1  UNL1       -0.0586
     14 C           2.0850   -1.7694    0.0000 C.ar    1  UNL1       -0.0586
     15 C           2.9511   -2.2694    0.0000 C.ar    1  UNL1       -0.0504
     16 C           2.9511   -3.2694    0.0000 C.3     1  UNL1       -0.0397
     17 H           2.3320    2.2186    0.0000 H       1  UNL1        0.0350
     18 H           2.0756    1.4295    0.0000 H       1  UNL1        0.0350
     19 H           4.8265    1.4295    0.0000 H       1  UNL1        0.0347
     20 H           4.5701    2.2186    0.0000 H       1  UNL1        0.0347
     21 H           1.8084    1.0112    0.0000 H       1  UNL1        0.0238
     22 H           1.4103    0.2300    0.0000 H       1  UNL1        0.0238
     23 H           2.1916   -0.1681    0.0000 H       1  UNL1        0.0238
     24 H           4.7105   -0.1681    0.0000 H       1  UNL1        0.0235
     25 H           5.4918    0.2300    0.0000 H       1  UNL1        0.0235
     26 H           5.0937    1.0112    0.0000 H       1  UNL1        0.0235
     27 H           3.9142   -0.4454    0.0000 H       1  UNL1        0.0235
     28 H           4.7612   -0.6723    0.0000 H       1  UNL1        0.0235
     29 H           4.9880    0.1747    0.0000 H       1  UNL1        0.0235
     30 H           4.3540   -0.4594    0.0000 H       1  UNL1        0.0621
     31 H           1.5481   -0.4594    0.0000 H       1  UNL1        0.0621
     32 H           4.3540   -2.0794    0.0000 H       1  UNL1        0.0620
     33 H           1.5481   -2.0794    0.0000 H       1  UNL1        0.0620
     34 H           2.3311   -3.2694    0.0000 H       1  UNL1        0.0278
     35 H           2.9511   -3.8894    0.0000 H       1  UNL1        0.0278
     36 H           3.5711   -3.2694    0.0000 H       1  UNL1        0.0278
@<TRIPOS>BOND
     1     1     6    2
     2     2     3    1
     3     2     4    1
     4     2     7    1
     5     2     8    1
     6     3     5    1
     7     3     9    1
     8     3    10    1
     9     4     6    1
    10     4    17    1
    11     4    18    1
    12     5     6    1
    13     5    19    1
    14     5    20    1
    15     7    11   ar
    16     7    12   ar
    17     8    21    1
    18     8    22    1
    19     8    23    1
    20     9    24    1
    21     9    25    1
    22     9    26    1
    23    10    27    1
    24    10    28    1
    25    10    29    1
    26    11    13   ar
    27    11    30    1
    28    12    14   ar
    29    12    31    1
    30    13    15   ar
    31    13    32    1
    32    14    15   ar
    33    14    33    1
    34    15    16    1
    35    16    34    1
    36    16    35    1
    37    16    36    1
