@<TRIPOS>MOLECULE
IMPHY015189
 36 36 0 0 0
SMALL
GASTEIGER

@<TRIPOS>ATOM
      1 C           3.0878   -1.0761    0.0000 C.3     1  UNL1       -0.0408
      2 C           2.5878   -2.6149    0.0000 C.3     1  UNL1       -0.0436
      3 C           2.2788   -1.6639    0.0000 C.3     1  UNL1       -0.0476
      4 C           3.8968   -1.6639    0.0000 C.3     1  UNL1       -0.0500
      5 C           3.5878   -2.6149    0.0000 C.3     1  UNL1       -0.0502
      6 C           3.0878   -0.0761    0.0000 C.3     1  UNL1       -0.0502
      7 C           3.9538    0.4239    0.0000 C.3     1  UNL1       -0.0528
      8 C           2.0000   -3.4239    0.0000 C.3     1  UNL1       -0.0624
      9 C           3.9538    1.4239    0.0000 C.3     1  UNL1       -0.0531
     10 C           4.8198    1.9239    0.0000 C.3     1  UNL1       -0.0533
     11 C           4.8198    2.9239    0.0000 C.3     1  UNL1       -0.0559
     12 C           5.6859    3.4239    0.0000 C.3     1  UNL1       -0.0653
     13 H           3.6402   -0.7946    0.0000 H       1  UNL1        0.0301
     14 H           1.9754   -2.5179    0.0000 H       1  UNL1        0.0298
     15 H           1.9688   -1.1269    0.0000 H       1  UNL1        0.0271
     16 H           1.7124   -1.9160    0.0000 H       1  UNL1        0.0271
     17 H           4.4632   -1.9160    0.0000 H       1  UNL1        0.0268
     18 H           4.2068   -1.1269    0.0000 H       1  UNL1        0.0268
     19 H           3.5230   -3.2315    0.0000 H       1  UNL1        0.0268
     20 H           4.1942   -2.7438    0.0000 H       1  UNL1        0.0268
     21 H           2.8757    0.5065    0.0000 H       1  UNL1        0.0268
     22 H           2.4772   -0.1837    0.0000 H       1  UNL1        0.0268
     23 H           4.1659   -0.1587    0.0000 H       1  UNL1        0.0265
     24 H           4.5644    0.5316    0.0000 H       1  UNL1        0.0265
     25 H           1.4984   -3.0595    0.0000 H       1  UNL1        0.0232
     26 H           1.6356   -3.9255    0.0000 H       1  UNL1        0.0232
     27 H           2.5016   -3.7884    0.0000 H       1  UNL1        0.0232
     28 H           3.7418    2.0065    0.0000 H       1  UNL1        0.0265
     29 H           3.3432    1.3163    0.0000 H       1  UNL1        0.0265
     30 H           5.0319    1.3413    0.0000 H       1  UNL1        0.0265
     31 H           5.4304    2.0316    0.0000 H       1  UNL1        0.0265
     32 H           4.6078    3.5065    0.0000 H       1  UNL1        0.0263
     33 H           4.2093    2.8163    0.0000 H       1  UNL1        0.0263
     34 H           5.9959    2.8870    0.0000 H       1  UNL1        0.0230
     35 H           6.2228    3.7339    0.0000 H       1  UNL1        0.0230
     36 H           5.3759    3.9609    0.0000 H       1  UNL1        0.0230
@<TRIPOS>BOND
     1     1     3    1
     2     1     4    1
     3     1     6    1
     4     1    13    1
     5     2     3    1
     6     2     5    1
     7     2     8    1
     8     2    14    1
     9     3    15    1
    10     3    16    1
    11     4     5    1
    12     4    17    1
    13     4    18    1
    14     5    19    1
    15     5    20    1
    16     6     7    1
    17     6    21    1
    18     6    22    1
    19     7     9    1
    20     7    23    1
    21     7    24    1
    22     8    25    1
    23     8    26    1
    24     8    27    1
    25     9    10    1
    26     9    28    1
    27     9    29    1
    28    10    11    1
    29    10    30    1
    30    10    31    1
    31    11    12    1
    32    11    32    1
    33    11    33    1
    34    12    34    1
    35    12    35    1
    36    12    36    1
