@<TRIPOS>MOLECULE
IMPHY015773
 16 15 0 0 0
SMALL
GASTEIGER

@<TRIPOS>ATOM
      1 O           3.7320    0.7500    0.0000 O.2     1  UNL1       -0.4974
      2 C           2.8660    0.2500    0.0000 C.3     1  UNL1        0.0937
      3 C           2.0000    0.7500    0.0000 C.3     1  UNL1       -0.0281
      4 C           2.8660   -0.7500    0.0000 C.3     1  UNL1       -0.0281
      5 C           4.5981    0.2500    0.0000 C.2     1  UNL1        0.0778
      6 C           5.4641    0.7500    0.0000 C.2     1  UNL1       -0.0642
      7 H           2.8660    0.8700    0.0000 H       1  UNL1        0.0727
      8 H           2.3100    1.2869    0.0000 H       1  UNL1        0.0265
      9 H           1.4631    1.0600    0.0000 H       1  UNL1        0.0265
     10 H           1.6900    0.2131    0.0000 H       1  UNL1        0.0265
     11 H           2.2460   -0.7500    0.0000 H       1  UNL1        0.0265
     12 H           2.8660   -1.3700    0.0000 H       1  UNL1        0.0265
     13 H           3.4860   -0.7500    0.0000 H       1  UNL1        0.0265
     14 H           4.5981   -0.3700    0.0000 H       1  UNL1        0.1017
     15 H           6.0010    0.4400    0.0000 H       1  UNL1        0.0565
     16 H           5.4641    1.3700    0.0000 H       1  UNL1        0.0565
@<TRIPOS>BOND
     1     1     2    1
     2     1     5    1
     3     2     3    1
     4     2     4    1
     5     2     7    1
     6     3     8    1
     7     3     9    1
     8     3    10    1
     9     4    11    1
    10     4    12    1
    11     4    13    1
    12     5     6    2
    13     5    14    1
    14     6    15    1
    15     6    16    1
