@<TRIPOS>MOLECULE
IMPHY002763
 79 83 0 0 0
SMALL
GASTEIGER

@<TRIPOS>ATOM
      1 O           8.1924    2.0612    0.0000 O.3     1  UNL1       -0.4580
      2 O           3.4349   -2.4395    0.0000 O.3     1  UNL1       -0.4582
      3 O           4.6707    0.6006    0.0000 O.3     1  UNL1       -0.4604
      4 O           2.0000   -1.5073    0.0000 O.2     1  UNL1       -0.2507
      5 O           7.3862    3.6504    0.0000 O.2     1  UNL1       -0.2508
      6 O           2.9830    0.9900    0.0000 O.2     1  UNL1       -0.2512
      7 C           7.0201   -1.0047    0.0000 C.3     1  UNL1       -0.0229
      8 C           7.8861   -0.5047    0.0000 C.3     1  UNL1       -0.0232
      9 C           6.1540   -0.5047    0.0000 C.3     1  UNL1       -0.0260
     10 C           7.8861    0.4953    0.0000 C.3     1  UNL1       -0.0287
     11 C           5.2440   -1.0115    0.0000 C.3     1  UNL1        0.0152
     12 C           8.8323    0.8001    0.0000 C.3     1  UNL1        0.0021
     13 C           8.8323   -0.8094    0.0000 C.3     1  UNL1       -0.0465
     14 C           7.0361   -2.0462    0.0000 C.3     1  UNL1       -0.0464
     15 C           6.1540    0.4953    0.0000 C.3     1  UNL1       -0.0488
     16 C           5.2360   -2.0531    0.0000 C.3     1  UNL1        0.0075
     17 C           7.0201    0.9953    0.0000 C.3     1  UNL1       -0.0490
     18 C           9.4159   -0.0047    0.0000 C.3     1  UNL1       -0.0458
     19 C           6.1381   -2.5739    0.0000 C.3     1  UNL1       -0.0455
     20 C           7.6628   -1.7707    0.0000 C.3     1  UNL1       -0.0588
     21 C           8.2282   -1.4443    0.0000 C.3     1  UNL1       -0.0588
     22 C           9.1430    1.7506    0.0000 C.3     1  UNL1        0.1143
     23 C           4.4459   -0.3738    0.0000 C.3     1  UNL1        0.1191
     24 C           4.4282   -2.6785    0.0000 C.3     1  UNL1        0.1114
     25 C           5.2518   -0.0115    0.0000 C.3     1  UNL1       -0.0555
     26 C           9.7322    2.5586    0.0000 C.3     1  UNL1       -0.0028
     27 C           3.4491   -0.5974    0.0000 C.3     1  UNL1        0.0825
     28 C           9.9510    1.1614    0.0000 C.3     1  UNL1       -0.0246
     29 C           4.1929   -3.6504    0.0000 C.3     1  UNL1       -0.0248
     30 C           5.0414   -3.4684    0.0000 C.3     1  UNL1       -0.0248
     31 C           3.0000   -1.5150    0.0000 C.2     1  UNL1        0.3112
     32 C           9.1458    3.3686    0.0000 C.3     1  UNL1        0.0486
     33 C           8.1942    3.0612    0.0000 C.2     1  UNL1        0.3077
     34 C           3.9392    1.2825    0.0000 C.2     1  UNL1        0.3042
     35 C           4.1640    2.2569    0.0000 C.3     1  UNL1        0.0332
     36 H           6.8902   -0.0797    0.0000 H       1  UNL1        0.0313
     37 H           7.9760    1.3405    0.0000 H       1  UNL1        0.0310
     38 H           9.6720    0.9319    0.0000 H       1  UNL1        0.0342
     39 H           8.5813   -1.3763    0.0000 H       1  UNL1        0.0271
     40 H           9.3697   -1.1186    0.0000 H       1  UNL1        0.0271
     41 H           7.2542   -2.6266    0.0000 H       1  UNL1        0.0271
     42 H           7.6453   -1.9307    0.0000 H       1  UNL1        0.0271
     43 H           5.9420    1.0779    0.0000 H       1  UNL1        0.0268
     44 H           5.5435    0.3877    0.0000 H       1  UNL1        0.0268
     45 H           5.2934   -2.9012    0.0000 H       1  UNL1        0.0346
     46 H           7.4186    1.4703    0.0000 H       1  UNL1        0.0268
     47 H           6.6215    1.4703    0.0000 H       1  UNL1        0.0268
     48 H           9.8768   -0.4194    0.0000 H       1  UNL1        0.0269
     49 H           9.8768    0.4101    0.0000 H       1  UNL1        0.0269
     50 H           5.7408   -3.0499    0.0000 H       1  UNL1        0.0270
     51 H           6.5390   -3.0468    0.0000 H       1  UNL1        0.0270
     52 H           7.1879   -2.1692    0.0000 H       1  UNL1        0.0235
     53 H           8.0614   -2.2457    0.0000 H       1  UNL1        0.0235
     54 H           8.1378   -1.3722    0.0000 H       1  UNL1        0.0235
     55 H           7.6456   -1.6564    0.0000 H       1  UNL1        0.0235
     56 H           8.4403   -2.0269    0.0000 H       1  UNL1        0.0235
     57 H           8.8108   -1.2322    0.0000 H       1  UNL1        0.0235
     58 H           4.0088    0.0660    0.0000 H       1  UNL1        0.0745
     59 H           5.8717   -0.0163    0.0000 H       1  UNL1        0.0236
     60 H           5.2565    0.6084    0.0000 H       1  UNL1        0.0236
     61 H           4.6318   -0.0068    0.0000 H       1  UNL1        0.0236
     62 H          10.1922    2.1429    0.0000 H       1  UNL1        0.0309
     63 H          10.1936    2.9726    0.0000 H       1  UNL1        0.0309
     64 H           3.4519    0.0226    0.0000 H       1  UNL1        0.0414
     65 H           2.8454   -0.4562    0.0000 H       1  UNL1        0.0414
     66 H           9.5857    0.6604    0.0000 H       1  UNL1        0.0268
     67 H          10.4519    0.7961    0.0000 H       1  UNL1        0.0268
     68 H          10.3163    1.6624    0.0000 H       1  UNL1        0.0268
     69 H           4.5516   -3.8486    0.0000 H       1  UNL1        0.0268
     70 H           5.4215   -3.9582    0.0000 H       1  UNL1        0.0268
     71 H           5.5311   -3.0882    0.0000 H       1  UNL1        0.0268
     72 H           3.5903   -3.5046    0.0000 H       1  UNL1        0.0268
     73 H           4.0470   -4.2530    0.0000 H       1  UNL1        0.0268
     74 H           4.7955   -3.7963    0.0000 H       1  UNL1        0.0268
     75 H           9.6832    3.6777    0.0000 H       1  UNL1        0.0379
     76 H           8.8946    3.9354    0.0000 H       1  UNL1        0.0379
     77 H           4.7682    2.1176    0.0000 H       1  UNL1        0.0342
     78 H           4.3034    2.8611    0.0000 H       1  UNL1        0.0342
     79 H           3.5599    2.3963    0.0000 H       1  UNL1        0.0342
@<TRIPOS>BOND
     1     1    22    1
     2     1    33    1
     3     2    24    1
     4     2    31    1
     5    23     3    1
     6     3    34    1
     7     4    31    2
     8     5    33    2
     9     6    34    2
    10     7     8    1
    11     7     9    1
    12     7    14    1
    13     7    20    1
    14     8    10    1
    15     8    13    1
    16     8    21    1
    17     9    11    1
    18     9    15    1
    19     9    36    1
    20    10    12    1
    21    10    17    1
    22    10    37    1
    23    11    16    1
    24    11    23    1
    25    11    25    1
    26    12    18    1
    27    12    22    1
    28    12    38    1
    29    13    18    1
    30    13    39    1
    31    13    40    1
    32    14    19    1
    33    14    41    1
    34    14    42    1
    35    15    17    1
    36    15    43    1
    37    15    44    1
    38    16    19    1
    39    16    24    1
    40    16    45    1
    41    17    46    1
    42    17    47    1
    43    18    48    1
    44    18    49    1
    45    19    50    1
    46    19    51    1
    47    20    52    1
    48    20    53    1
    49    20    54    1
    50    21    55    1
    51    21    56    1
    52    21    57    1
    53    22    26    1
    54    22    28    1
    55    23    27    1
    56    23    58    1
    57    24    29    1
    58    24    30    1
    59    25    59    1
    60    25    60    1
    61    25    61    1
    62    26    32    1
    63    26    62    1
    64    26    63    1
    65    27    31    1
    66    27    64    1
    67    27    65    1
    68    28    66    1
    69    28    67    1
    70    28    68    1
    71    29    72    1
    72    29    73    1
    73    29    74    1
    74    30    69    1
    75    30    70    1
    76    30    71    1
    77    32    33    1
    78    32    75    1
    79    32    76    1
    80    34    35    1
    81    35    77    1
    82    35    78    1
    83    35    79    1
