@<TRIPOS>MOLECULE
IMPHY012438
 31 32 0 0 0
SMALL
GASTEIGER

@<TRIPOS>ATOM
      1 O           2.0000   -3.5950    0.0000 O.3     1  UNL1       -0.5066
      2 O           5.4641   -3.5950    0.0000 O.3     1  UNL1       -0.5066
      3 O           4.5981    3.9050    0.0000 O.3     1  UNL1       -0.5068
      4 C           3.7320   -0.5950    0.0000 C.3     1  UNL1       -0.0235
      5 C           4.5981   -0.0950    0.0000 C.3     1  UNL1       -0.0237
      6 C           3.7320   -1.5950    0.0000 C.ar    1  UNL1       -0.0402
      7 C           4.5981    0.9050    0.0000 C.ar    1  UNL1       -0.0468
      8 C           4.5981   -2.0950    0.0000 C.ar    1  UNL1       -0.0168
      9 C           2.8660   -2.0950    0.0000 C.ar    1  UNL1       -0.0168
     10 C           3.7320    1.4050    0.0000 C.ar    1  UNL1       -0.0551
     11 C           5.4641    1.4050    0.0000 C.ar    1  UNL1       -0.0551
     12 C           2.8660   -3.0950    0.0000 C.ar    1  UNL1        0.1206
     13 C           4.5981   -3.0950    0.0000 C.ar    1  UNL1        0.1206
     14 C           3.7320   -3.5950    0.0000 C.ar    1  UNL1        0.0213
     15 C           3.7320    2.4050    0.0000 C.ar    1  UNL1       -0.0199
     16 C           5.4641    2.4050    0.0000 C.ar    1  UNL1       -0.0199
     17 C           4.5981    2.9050    0.0000 C.ar    1  UNL1        0.1169
     18 H           3.5200   -0.0124    0.0000 H       1  UNL1        0.0316
     19 H           3.1215   -0.7027    0.0000 H       1  UNL1        0.0316
     20 H           4.8101   -0.6776    0.0000 H       1  UNL1        0.0316
     21 H           5.2087    0.0127    0.0000 H       1  UNL1        0.0316
     22 H           5.1350   -1.7850    0.0000 H       1  UNL1        0.0657
     23 H           2.3291   -1.7850    0.0000 H       1  UNL1        0.0657
     24 H           3.1951    1.0950    0.0000 H       1  UNL1        0.0621
     25 H           6.0010    1.0950    0.0000 H       1  UNL1        0.0621
     26 H           3.7320   -4.2150    0.0000 H       1  UNL1        0.0691
     27 H           3.1951    2.7150    0.0000 H       1  UNL1        0.0654
     28 H           6.0010    2.7150    0.0000 H       1  UNL1        0.0654
     29 H           2.0000   -4.2150    0.0000 H       1  UNL1        0.2921
     30 H           5.4641   -4.2150    0.0000 H       1  UNL1        0.2921
     31 H           5.1350    4.2150    0.0000 H       1  UNL1        0.2921
@<TRIPOS>BOND
     1     1    12    1
     2     1    29    1
     3     2    13    1
     4     2    30    1
     5     3    17    1
     6     3    31    1
     7     4     5    1
     8     4     6    1
     9     4    18    1
    10     4    19    1
    11     5     7    1
    12     5    20    1
    13     5    21    1
    14     6     8   ar
    15     6     9   ar
    16     7    10   ar
    17     7    11   ar
    18     8    13   ar
    19     8    22    1
    20     9    12   ar
    21     9    23    1
    22    10    15   ar
    23    10    24    1
    24    11    16   ar
    25    11    25    1
    26    12    14   ar
    27    13    14   ar
    28    14    26    1
    29    15    17   ar
    30    15    27    1
    31    16    17   ar
    32    16    28    1
