@<TRIPOS>MOLECULE
IMPHY008253
 97 100 0 0 0
SMALL
GASTEIGER

@<TRIPOS>ATOM
      1 O           6.0897    4.0366    0.0000 O.3     1  UNL1       -0.4318
      2 O           4.5798    3.1880    0.0000 O.2     1  UNL1       -0.2501
      3 O           4.5998    4.9199    0.0000 O.3     1  UNL1       -0.3312
      4 O           7.1096    5.7570    0.0000 O.3     1  UNL1       -0.3829
      5 O           6.1297    7.5004    0.0000 O.3     1  UNL1       -0.3864
      6 O           4.1299    7.5236    0.0000 O.3     1  UNL1       -0.3865
      7 O           7.7883   -4.7469    0.0000 O.3     1  UNL1       -0.3446
      8 O           2.6200    6.6750    0.0000 O.3     1  UNL1       -0.3924
      9 O           6.0563   -4.7469    0.0000 O.3     1  UNL1       -0.3405
     10 O           7.7883   -6.7469    0.0000 O.3     1  UNL1       -0.3841
     11 O           6.0563   -7.7469    0.0000 O.3     1  UNL1       -0.3864
     12 O           4.3242   -6.7469    0.0000 O.3     1  UNL1       -0.3865
     13 O           4.3242   -3.7469    0.0000 O.3     1  UNL1       -0.3924
     14 C           6.9183    0.7947    0.0000 C.3     1  UNL1       -0.0217
     15 C           6.0581    1.3047    0.0000 C.3     1  UNL1       -0.0193
     16 C           6.0696    2.3046    0.0000 C.3     1  UNL1        0.0684
     17 C           6.9223   -0.2469    0.0000 C.3     1  UNL1       -0.0142
     18 C           7.7900    1.2847    0.0000 C.3     1  UNL1       -0.0468
     19 C           5.1423    0.8084    0.0000 C.3     1  UNL1       -0.0450
     20 C           6.9414    2.7946    0.0000 C.3     1  UNL1       -0.0372
     21 C           7.8016    2.2846    0.0000 C.3     1  UNL1       -0.0515
     22 C           7.7785    0.2848    0.0000 C.3     1  UNL1       -0.0587
     23 C           5.1222   -0.2330    0.0000 C.3     1  UNL1       -0.0314
     24 C           6.0182   -0.7642    0.0000 C.2     1  UNL1       -0.0730
     25 C           7.7883   -0.7469    0.0000 C.3     1  UNL1       -0.0423
     26 C           5.0697    2.3162    0.0000 C.3     1  UNL1       -0.0491
     27 C           5.5797    3.1764    0.0000 C.2     1  UNL1        0.3156
     28 C           7.7883   -1.7469    0.0000 C.3     1  UNL1       -0.0314
     29 C           6.0105   -1.7642    0.0000 C.2     1  UNL1       -0.0992
     30 C           8.6543   -2.2469    0.0000 C.2     1  UNL1       -0.0744
     31 C           5.5997    4.9083    0.0000 C.3     1  UNL1        0.2337
     32 C           6.1097    5.7685    0.0000 C.3     1  UNL1        0.1455
     33 C           9.5204   -1.7469    0.0000 C.3     1  UNL1       -0.0437
     34 C           8.6543   -3.2469    0.0000 C.2     1  UNL1       -0.0596
     35 C           5.6198    6.6403    0.0000 C.3     1  UNL1        0.1152
     36 C           4.1098    5.7916    0.0000 C.3     1  UNL1        0.1140
     37 C           4.6198    6.6518    0.0000 C.3     1  UNL1        0.1120
     38 C           7.7883   -3.7469    0.0000 C.3     1  UNL1        0.0692
     39 C           3.1099    5.8032    0.0000 C.3     1  UNL1        0.0731
     40 C           6.9223   -5.2469    0.0000 C.3     1  UNL1        0.1882
     41 C           6.9223   -6.2469    0.0000 C.3     1  UNL1        0.1341
     42 C           6.0563   -6.7469    0.0000 C.3     1  UNL1        0.1141
     43 C           5.1902   -6.2469    0.0000 C.3     1  UNL1        0.1119
     44 C           5.1902   -5.2469    0.0000 C.3     1  UNL1        0.1130
     45 C           4.3242   -4.7469    0.0000 C.3     1  UNL1        0.0730
     46 H           5.5272    1.6250    0.0000 H       1  UNL1        0.0317
     47 H           6.9211   -0.8669    0.0000 H       1  UNL1        0.0351
     48 H           7.9953    0.6997    0.0000 H       1  UNL1        0.0271
     49 H           8.4018    1.3853    0.0000 H       1  UNL1        0.0271
     50 H           4.9445    1.3960    0.0000 H       1  UNL1        0.0271
     51 H           4.5295    0.7141    0.0000 H       1  UNL1        0.0271
     52 H           7.3454    3.2649    0.0000 H       1  UNL1        0.0276
     53 H           6.5484    3.2741    0.0000 H       1  UNL1        0.0276
     54 H           8.4109    2.1699    0.0000 H       1  UNL1        0.0266
     55 H           8.0204    2.8647    0.0000 H       1  UNL1        0.0266
     56 H           7.4623   -0.2486    0.0000 H       1  UNL1        0.0235
     57 H           8.3118   -0.0314    0.0000 H       1  UNL1        0.0235
     58 H           8.0946    0.8181    0.0000 H       1  UNL1        0.0235
     59 H           4.5135   -0.1152    0.0000 H       1  UNL1        0.0310
     60 H           4.9020   -0.8126    0.0000 H       1  UNL1        0.0310
     61 H           8.3989   -0.8546    0.0000 H       1  UNL1        0.0274
     62 H           8.0004   -0.1643    0.0000 H       1  UNL1        0.0274
     63 H           5.0769    2.9362    0.0000 H       1  UNL1        0.0240
     64 H           4.4498    2.3234    0.0000 H       1  UNL1        0.0240
     65 H           5.0626    1.6962    0.0000 H       1  UNL1        0.0240
     66 H           7.1777   -1.6392    0.0000 H       1  UNL1        0.0310
     67 H           7.5763   -2.3295    0.0000 H       1  UNL1        0.0310
     68 H           5.4712   -2.0700    0.0000 H       1  UNL1        0.0534
     69 H           6.5450   -2.0783    0.0000 H       1  UNL1        0.0534
     70 H           6.2197    4.9012    0.0000 H       1  UNL1        0.1085
     71 H           6.4259    6.3018    0.0000 H       1  UNL1        0.0683
     72 H           9.8304   -2.2838    0.0000 H       1  UNL1        0.0274
     73 H          10.0573   -1.4369    0.0000 H       1  UNL1        0.0274
     74 H           9.2104   -1.2100    0.0000 H       1  UNL1        0.0274
     75 H           9.1913   -3.5569    0.0000 H       1  UNL1        0.0594
     76 H           5.3160    7.1808    0.0000 H       1  UNL1        0.0648
     77 H           3.7937    5.2583    0.0000 H       1  UNL1        0.0647
     78 H           4.9360    7.1851    0.0000 H       1  UNL1        0.0647
     79 H           7.5763   -3.1643    0.0000 H       1  UNL1        0.0605
     80 H           7.1777   -3.8546    0.0000 H       1  UNL1        0.0605
     81 H           7.4258    6.2903    0.0000 H       1  UNL1        0.2102
     82 H           2.5249    5.5979    0.0000 H       1  UNL1        0.0584
     83 H           3.2105    5.1914    0.0000 H       1  UNL1        0.0584
     84 H           5.8260    8.0409    0.0000 H       1  UNL1        0.2100
     85 H           4.4461    8.0569    0.0000 H       1  UNL1        0.2100
     86 H           6.9223   -4.6269    0.0000 H       1  UNL1        0.0938
     87 H           6.9223   -6.8669    0.0000 H       1  UNL1        0.0671
     88 H           5.5193   -7.0569    0.0000 H       1  UNL1        0.0648
     89 H           5.1902   -6.8669    0.0000 H       1  UNL1        0.0647
     90 H           5.1902   -4.6269    0.0000 H       1  UNL1        0.0647
     91 H           2.0000    6.6821    0.0000 H       1  UNL1        0.2095
     92 H           3.7136   -4.6392    0.0000 H       1  UNL1        0.0584
     93 H           4.1122   -5.3295    0.0000 H       1  UNL1        0.0584
     94 H           8.3252   -6.4369    0.0000 H       1  UNL1        0.2101
     95 H           5.5193   -8.0569    0.0000 H       1  UNL1        0.2100
     96 H           3.7873   -6.4369    0.0000 H       1  UNL1        0.2100
     97 H           3.7873   -3.4369    0.0000 H       1  UNL1        0.2095
@<TRIPOS>BOND
     1     1    27    1
     2     1    31    1
     3     2    27    2
     4     3    31    1
     5     3    36    1
     6     4    32    1
     7     4    81    1
     8     5    35    1
     9     5    84    1
    10     6    37    1
    11     6    85    1
    12     7    38    1
    13     7    40    1
    14     8    39    1
    15     8    91    1
    16     9    40    1
    17     9    44    1
    18    10    41    1
    19    10    94    1
    20    11    42    1
    21    11    95    1
    22    12    43    1
    23    12    96    1
    24    13    45    1
    25    13    97    1
    26    14    15    1
    27    14    17    1
    28    14    18    1
    29    14    22    1
    30    15    16    1
    31    15    19    1
    32    15    46    1
    33    16    20    1
    34    16    26    1
    35    16    27    1
    36    17    24    1
    37    17    25    1
    38    17    47    1
    39    18    21    1
    40    18    48    1
    41    18    49    1
    42    19    23    1
    43    19    50    1
    44    19    51    1
    45    20    21    1
    46    20    52    1
    47    20    53    1
    48    21    54    1
    49    21    55    1
    50    22    56    1
    51    22    57    1
    52    22    58    1
    53    23    24    1
    54    23    59    1
    55    23    60    1
    56    24    29    2
    57    25    28    1
    58    25    61    1
    59    25    62    1
    60    26    63    1
    61    26    64    1
    62    26    65    1
    63    28    30    1
    64    28    66    1
    65    28    67    1
    66    29    68    1
    67    29    69    1
    68    30    33    1
    69    30    34    2
    70    31    32    1
    71    31    70    1
    72    32    35    1
    73    32    71    1
    74    33    72    1
    75    33    73    1
    76    33    74    1
    77    34    38    1
    78    34    75    1
    79    35    37    1
    80    35    76    1
    81    36    37    1
    82    36    39    1
    83    36    77    1
    84    37    78    1
    85    38    79    1
    86    38    80    1
    87    39    82    1
    88    39    83    1
    89    40    41    1
    90    40    86    1
    91    41    42    1
    92    41    87    1
    93    42    43    1
    94    42    88    1
    95    43    44    1
    96    43    89    1
    97    44    45    1
    98    44    90    1
    99    45    92    1
   100    45    93    1
