@<TRIPOS>MOLECULE
IMPHY006629
 46 47 0 0 0
SMALL
GASTEIGER

@<TRIPOS>ATOM
      1 O           2.6200   -1.5510    0.0000 O.3     1  UNL1       -0.3885
      2 O           3.1200    2.3150    0.0000 O.3     1  UNL1       -0.3912
      3 O           7.1999   -1.8527    0.0000 O.3     1  UNL1       -0.3891
      4 C           3.9860    0.8150    0.0000 C.3     1  UNL1       -0.0004
      5 C           3.9860   -0.1850    0.0000 C.3     1  UNL1       -0.0017
      6 C           4.9322   -0.4897    0.0000 C.3     1  UNL1       -0.0324
      7 C           3.1200   -0.6850    0.0000 C.3     1  UNL1        0.0670
      8 C           4.9322    1.1197    0.0000 C.3     1  UNL1       -0.0447
      9 C           5.5158    0.3150    0.0000 C.3     1  UNL1       -0.0492
     10 C           3.1200    1.3150    0.0000 C.3     1  UNL1        0.0610
     11 C           2.2540   -0.1850    0.0000 C.3     1  UNL1       -0.0216
     12 C           2.2540    0.8150    0.0000 C.3     1  UNL1       -0.0237
     13 C           5.2429   -1.4403    0.0000 C.3     1  UNL1       -0.0213
     14 C           3.9860    1.8150    0.0000 C.3     1  UNL1       -0.0569
     15 C           3.6200   -1.5510    0.0000 C.3     1  UNL1       -0.0358
     16 C           6.2214   -1.6465    0.0000 C.3     1  UNL1        0.0608
     17 C           6.0152   -2.6250    0.0000 C.3     1  UNL1       -0.0363
     18 C           6.4276   -0.6680    0.0000 C.3     1  UNL1       -0.0363
     19 H           4.0760   -1.0302    0.0000 H       1  UNL1        0.0337
     20 H           5.5447   -0.5859    0.0000 H       1  UNL1        0.0305
     21 H           5.4696    1.4290    0.0000 H       1  UNL1        0.0272
     22 H           4.6812    1.6866    0.0000 H       1  UNL1        0.0272
     23 H           5.9767   -0.0997    0.0000 H       1  UNL1        0.0268
     24 H           5.9767    0.7297    0.0000 H       1  UNL1        0.0268
     25 H           2.5831    1.6250    0.0000 H       1  UNL1        0.0599
     26 H           1.6434   -0.0773    0.0000 H       1  UNL1        0.0294
     27 H           2.0419   -0.7676    0.0000 H       1  UNL1        0.0294
     28 H           2.0419    1.3976    0.0000 H       1  UNL1        0.0291
     29 H           1.6434    0.7073    0.0000 H       1  UNL1        0.0291
     30 H           4.6291   -1.5276    0.0000 H       1  UNL1        0.0295
     31 H           5.2223   -2.0599    0.0000 H       1  UNL1        0.0295
     32 H           4.6060    1.8150    0.0000 H       1  UNL1        0.0236
     33 H           3.9860    2.4350    0.0000 H       1  UNL1        0.0236
     34 H           3.3660    1.8150    0.0000 H       1  UNL1        0.0236
     35 H           3.0831   -1.8610    0.0000 H       1  UNL1        0.0257
     36 H           3.9300   -2.0880    0.0000 H       1  UNL1        0.0257
     37 H           4.1569   -1.2410    0.0000 H       1  UNL1        0.0257
     38 H           2.0000   -1.5510    0.0000 H       1  UNL1        0.2102
     39 H           2.5831    2.6250    0.0000 H       1  UNL1        0.2098
     40 H           5.4085   -2.4971    0.0000 H       1  UNL1        0.0257
     41 H           5.8873   -3.2317    0.0000 H       1  UNL1        0.0257
     42 H           6.6219   -2.7528    0.0000 H       1  UNL1        0.0257
     43 H           7.0343   -0.7958    0.0000 H       1  UNL1        0.0257
     44 H           6.5555   -0.0613    0.0000 H       1  UNL1        0.0257
     45 H           5.8210   -0.5401    0.0000 H       1  UNL1        0.0257
     46 H           7.3925   -2.4420    0.0000 H       1  UNL1        0.2101
@<TRIPOS>BOND
     1     7     1    1
     2     1    38    1
     3    10     2    1
     4     2    39    1
     5     3    16    1
     6     3    46    1
     7     4     5    1
     8     4     8    1
     9     4    10    1
    10     4    14    1
    11     5     6    1
    12     5     7    1
    13     5    19    1
    14     6     9    1
    15     6    13    1
    16     6    20    1
    17     7    11    1
    18     7    15    1
    19     8     9    1
    20     8    21    1
    21     8    22    1
    22     9    23    1
    23     9    24    1
    24    10    12    1
    25    10    25    1
    26    11    12    1
    27    11    26    1
    28    11    27    1
    29    12    28    1
    30    12    29    1
    31    13    16    1
    32    13    30    1
    33    13    31    1
    34    14    32    1
    35    14    33    1
    36    14    34    1
    37    15    35    1
    38    15    36    1
    39    15    37    1
    40    16    17    1
    41    16    18    1
    42    17    40    1
    43    17    41    1
    44    17    42    1
    45    18    43    1
    46    18    44    1
    47    18    45    1
