@<TRIPOS>MOLECULE
IMPHY002319
 90 94 0 0 0
SMALL
GASTEIGER

@<TRIPOS>ATOM
      1 O           2.5381   -3.0459    0.0000 O.3     1  UNL1       -0.3912
      2 O          11.2378    3.6101    0.0000 O.3     1  UNL1       -0.3766
      3 C           6.0682   -1.0217    0.0000 C.3     1  UNL1       -0.0194
      4 C           5.2022   -1.5217    0.0000 C.3     1  UNL1       -0.0193
      5 C           5.2020   -0.5213    0.0000 C.3     1  UNL1       -0.0401
      6 C           6.9343   -1.5217    0.0000 C.3     1  UNL1       -0.0289
      7 C           5.2022   -2.5217    0.0000 C.3     1  UNL1       -0.0273
      8 C           7.8443   -1.0149    0.0000 C.3     1  UNL1       -0.0231
      9 C           6.0522    0.0198    0.0000 C.3     1  UNL1       -0.0460
     10 C           7.8523    0.0267    0.0000 C.3     1  UNL1       -0.0233
     11 C           4.3083   -0.9871    0.0000 C.3     1  UNL1       -0.0442
     12 C           6.9343   -2.5217    0.0000 C.3     1  UNL1       -0.0489
     13 C           6.0682   -3.0217    0.0000 C.3     1  UNL1       -0.0488
     14 C           6.9502    0.5475    0.0000 C.3     1  UNL1       -0.0463
     15 C           4.3083   -3.0564    0.0000 C.3     1  UNL1       -0.0056
     16 C           8.8403    0.3365    0.0000 C.3     1  UNL1       -0.0325
     17 C           8.8274   -1.3399    0.0000 C.3     1  UNL1       -0.0466
     18 C           3.4022   -1.5009    0.0000 C.3     1  UNL1       -0.0258
     19 C           3.4022   -2.5425    0.0000 C.3     1  UNL1        0.0606
     20 C           9.4418   -0.5064    0.0000 C.3     1  UNL1       -0.0489
     21 C           7.8366   -2.0148    0.0000 C.3     1  UNL1       -0.0588
     22 C           7.8600    1.0267    0.0000 C.3     1  UNL1       -0.0588
     23 C           9.1583    1.2846    0.0000 C.3     1  UNL1       -0.0404
     24 C           3.8183   -3.9281    0.0000 C.3     1  UNL1       -0.0572
     25 C           4.8183   -3.9166    0.0000 C.3     1  UNL1       -0.0572
     26 C          10.1384    1.4833    0.0000 C.3     1  UNL1       -0.0476
     27 C           8.4962    2.0341    0.0000 C.3     1  UNL1       -0.0621
     28 C          10.4564    2.4314    0.0000 C.3     1  UNL1       -0.0235
     29 C          11.4364    2.6301    0.0000 C.3     1  UNL1        0.0687
     30 C          12.4165    2.8288    0.0000 C.3     1  UNL1       -0.0178
     31 C          11.6351    1.6500    0.0000 C.3     1  UNL1       -0.0356
     32 C          12.7345    3.7768    0.0000 C.3     1  UNL1       -0.0601
     33 C          13.0786    2.0793    0.0000 C.3     1  UNL1       -0.0601
     34 C          10.2897    3.9281    0.0000 C.3     1  UNL1        0.0372
     35 H           5.4141    0.0613    0.0000 H       1  UNL1        0.0276
     36 H           4.5914   -0.4137    0.0000 H       1  UNL1        0.0276
     37 H           7.6671   -1.9524    0.0000 H       1  UNL1        0.0312
     38 H           5.2088   -3.3717    0.0000 H       1  UNL1        0.0312
     39 H           5.8342    0.6002    0.0000 H       1  UNL1        0.0271
     40 H           5.4431   -0.0957    0.0000 H       1  UNL1        0.0271
     41 H           4.7129   -0.5173    0.0000 H       1  UNL1        0.0272
     42 H           3.9147   -0.5080    0.0000 H       1  UNL1        0.0272
     43 H           7.1463   -3.1043    0.0000 H       1  UNL1        0.0268
     44 H           7.5449   -2.4140    0.0000 H       1  UNL1        0.0268
     45 H           5.6697   -3.4967    0.0000 H       1  UNL1        0.0268
     46 H           6.4668   -3.4967    0.0000 H       1  UNL1        0.0268
     47 H           7.3475    1.0235    0.0000 H       1  UNL1        0.0271
     48 H           6.5493    1.0204    0.0000 H       1  UNL1        0.0271
     49 H           9.6810    0.4619    0.0000 H       1  UNL1        0.0309
     50 H           8.5720   -1.9048    0.0000 H       1  UNL1        0.0271
     51 H           9.3624   -1.6532    0.0000 H       1  UNL1        0.0271
     52 H           3.1932   -0.9172    0.0000 H       1  UNL1        0.0290
     53 H           2.7914   -1.6070    0.0000 H       1  UNL1        0.0290
     54 H           2.8647   -2.2336    0.0000 H       1  UNL1        0.0599
     55 H           9.8994   -0.9246    0.0000 H       1  UNL1        0.0268
     56 H           9.9058   -0.0952    0.0000 H       1  UNL1        0.0268
     57 H           7.2166   -2.0101    0.0000 H       1  UNL1        0.0235
     58 H           7.8318   -2.6348    0.0000 H       1  UNL1        0.0235
     59 H           8.4566   -2.0196    0.0000 H       1  UNL1        0.0235
     60 H           8.4800    1.0219    0.0000 H       1  UNL1        0.0235
     61 H           7.8648    1.6467    0.0000 H       1  UNL1        0.0235
     62 H           7.2400    1.0315    0.0000 H       1  UNL1        0.0235
     63 H           9.3555    1.8725    0.0000 H       1  UNL1        0.0301
     64 H           3.2778   -3.6244    0.0000 H       1  UNL1        0.0236
     65 H           3.5146   -4.4686    0.0000 H       1  UNL1        0.0236
     66 H           4.3588   -4.2319    0.0000 H       1  UNL1        0.0236
     67 H           4.2850   -4.2328    0.0000 H       1  UNL1        0.0236
     68 H           5.1344   -4.4499    0.0000 H       1  UNL1        0.0236
     69 H           5.3516   -3.6004    0.0000 H       1  UNL1        0.0236
     70 H           2.0000   -2.7379    0.0000 H       1  UNL1        0.2098
     71 H          10.1542    0.8635    0.0000 H       1  UNL1        0.0269
     72 H          10.7515    1.3912    0.0000 H       1  UNL1        0.0269
     73 H           8.9609    2.4446    0.0000 H       1  UNL1        0.0233
     74 H           8.0857    2.4987    0.0000 H       1  UNL1        0.0233
     75 H           8.0316    1.6236    0.0000 H       1  UNL1        0.0233
     76 H          10.4406    3.0512    0.0000 H       1  UNL1        0.0293
     77 H           9.8432    2.5235    0.0000 H       1  UNL1        0.0293
     78 H          12.2194    2.2409    0.0000 H       1  UNL1        0.0323
     79 H          11.0275    1.5268    0.0000 H       1  UNL1        0.0257
     80 H          11.7583    1.0424    0.0000 H       1  UNL1        0.0257
     81 H          12.2427    1.7732    0.0000 H       1  UNL1        0.0257
     82 H          12.6139    1.6688    0.0000 H       1  UNL1        0.0233
     83 H          13.4891    1.6147    0.0000 H       1  UNL1        0.0233
     84 H          13.5432    2.4898    0.0000 H       1  UNL1        0.0233
     85 H          13.3223    3.5797    0.0000 H       1  UNL1        0.0233
     86 H          12.9316    4.3647    0.0000 H       1  UNL1        0.0233
     87 H          12.1467    3.9740    0.0000 H       1  UNL1        0.0233
     88 H          10.4868    4.5159    0.0000 H       1  UNL1        0.0524
     89 H           9.7018    4.1253    0.0000 H       1  UNL1        0.0524
     90 H          10.0925    3.3403    0.0000 H       1  UNL1        0.0524
@<TRIPOS>BOND
     1    19     1    1
     2     1    70    1
     3     2    29    1
     4     2    34    1
     5     3     4    1
     6     3     5    1
     7     3     6    1
     8     3     9    1
     9     4     5    1
    10     4     7    1
    11     4    11    1
    12     5    35    1
    13     5    36    1
    14     6     8    1
    15     6    12    1
    16     6    37    1
    17     7    13    1
    18     7    15    1
    19     7    38    1
    20     8    10    1
    21     8    17    1
    22     8    21    1
    23     9    14    1
    24     9    39    1
    25     9    40    1
    26    10    14    1
    27    10    16    1
    28    10    22    1
    29    11    18    1
    30    11    41    1
    31    11    42    1
    32    12    13    1
    33    12    43    1
    34    12    44    1
    35    13    45    1
    36    13    46    1
    37    14    47    1
    38    14    48    1
    39    15    19    1
    40    15    24    1
    41    15    25    1
    42    16    20    1
    43    16    23    1
    44    16    49    1
    45    17    20    1
    46    17    50    1
    47    17    51    1
    48    18    19    1
    49    18    52    1
    50    18    53    1
    51    19    54    1
    52    20    55    1
    53    20    56    1
    54    21    57    1
    55    21    58    1
    56    21    59    1
    57    22    60    1
    58    22    61    1
    59    22    62    1
    60    23    26    1
    61    23    27    1
    62    23    63    1
    63    24    64    1
    64    24    65    1
    65    24    66    1
    66    25    67    1
    67    25    68    1
    68    25    69    1
    69    26    28    1
    70    26    71    1
    71    26    72    1
    72    27    73    1
    73    27    74    1
    74    27    75    1
    75    28    29    1
    76    28    76    1
    77    28    77    1
    78    29    30    1
    79    29    31    1
    80    30    32    1
    81    30    33    1
    82    30    78    1
    83    31    79    1
    84    31    80    1
    85    31    81    1
    86    32    85    1
    87    32    86    1
    88    32    87    1
    89    33    82    1
    90    33    83    1
    91    33    84    1
    92    34    88    1
    93    34    89    1
    94    34    90    1
