@<TRIPOS>MOLECULE
IMPHY010144
 68 73 0 0 0
SMALL
GASTEIGER

@<TRIPOS>ATOM
      1 O           6.0682   -1.8529    0.0000 O.3     1  UNL1       -0.4825
      2 O           7.8778    2.1189    0.0000 O.3     1  UNL1       -0.4825
      3 O           6.0682    1.1471    0.0000 O.2     1  UNL1       -0.2913
      4 O           8.9039   -0.7002    0.0000 O.2     1  UNL1       -0.2913
      5 O           4.3198    1.1817    0.0000 O.3     1  UNL1       -0.5058
      6 O          10.5587   -0.1347    0.0000 O.3     1  UNL1       -0.5058
      7 O           2.5381   -1.8770    0.0000 O.3     1  UNL1       -0.5065
      8 O          11.1868    3.3490    0.0000 O.3     1  UNL1       -0.5065
      9 O          10.3984   -3.3529    0.0000 O.3     1  UNL1       -0.4951
     10 O           3.7709    3.3529    0.0000 O.3     1  UNL1       -0.4951
     11 C           6.9343   -0.3529    0.0000 C.3     1  UNL1        0.0770
     12 C           7.5771    0.4132    0.0000 C.3     1  UNL1        0.0770
     13 C           6.9343   -1.3529    0.0000 C.3     1  UNL1        0.1358
     14 C           7.2350    1.3529    0.0000 C.3     1  UNL1        0.1358
     15 C           6.0682    0.1471    0.0000 C.2     1  UNL1        0.1779
     16 C           8.5619    0.2395    0.0000 C.2     1  UNL1        0.1779
     17 C           7.8003   -1.8529    0.0000 C.ar    1  UNL1       -0.0064
     18 C           6.3690    1.8529    0.0000 C.ar    1  UNL1       -0.0064
     19 C           5.2022   -0.3529    0.0000 C.ar    1  UNL1        0.1010
     20 C           9.2047    1.0056    0.0000 C.ar    1  UNL1        0.1010
     21 C           5.2022   -1.3529    0.0000 C.ar    1  UNL1        0.1389
     22 C           8.8626    1.9453    0.0000 C.ar    1  UNL1        0.1389
     23 C           4.3083    0.1818    0.0000 C.ar    1  UNL1        0.1343
     24 C          10.2276    0.8089    0.0000 C.ar    1  UNL1        0.1343
     25 C           7.8003   -2.8529    0.0000 C.ar    1  UNL1       -0.0516
     26 C           8.6663   -1.3529    0.0000 C.ar    1  UNL1       -0.0516
     27 C           6.3690    2.8529    0.0000 C.ar    1  UNL1       -0.0516
     28 C           5.5030    1.3530    0.0000 C.ar    1  UNL1       -0.0516
     29 C           4.3083   -1.8875    0.0000 C.ar    1  UNL1        0.0225
     30 C           9.5198    2.7534    0.0000 C.ar    1  UNL1        0.0225
     31 C           3.4022   -0.3321    0.0000 C.ar    1  UNL1        0.0222
     32 C          10.9032    1.6016    0.0000 C.ar    1  UNL1        0.0222
     33 C           3.4022   -1.3737    0.0000 C.ar    1  UNL1        0.1238
     34 C          10.5470    2.5805    0.0000 C.ar    1  UNL1        0.1238
     35 C           8.6663   -3.3529    0.0000 C.ar    1  UNL1       -0.0196
     36 C           9.5323   -1.8529    0.0000 C.ar    1  UNL1       -0.0196
     37 C           5.5030    3.3529    0.0000 C.ar    1  UNL1       -0.0196
     38 C           4.6370    1.8529    0.0000 C.ar    1  UNL1       -0.0196
     39 C           9.5323   -2.8529    0.0000 C.ar    1  UNL1        0.1201
     40 C           4.6370    2.8529    0.0000 C.ar    1  UNL1        0.1201
     41 C          10.3984   -4.3529    0.0000 C.3     1  UNL1        0.0788
     42 C           3.7709    4.3529    0.0000 C.3     1  UNL1        0.0788
     43 H           6.8266    0.2577    0.0000 H       1  UNL1        0.0429
     44 H           7.8678   -0.3856    0.0000 H       1  UNL1        0.0429
     45 H           6.9343   -1.9729    0.0000 H       1  UNL1        0.0792
     46 H           6.7601    0.9543    0.0000 H       1  UNL1        0.0792
     47 H           7.2634   -3.1629    0.0000 H       1  UNL1        0.0623
     48 H           8.6663   -0.7329    0.0000 H       1  UNL1        0.0623
     49 H           6.9060    3.1629    0.0000 H       1  UNL1        0.0623
     50 H           5.5030    0.7330    0.0000 H       1  UNL1        0.0623
     51 H           4.3154   -2.5075    0.0000 H       1  UNL1        0.0691
     52 H           9.3010    3.3336    0.0000 H       1  UNL1        0.0691
     53 H           2.8665   -0.0200    0.0000 H       1  UNL1        0.0691
     54 H          11.5134    1.4916    0.0000 H       1  UNL1        0.0691
     55 H           8.6663   -3.9729    0.0000 H       1  UNL1        0.0654
     56 H          10.0693   -1.5429    0.0000 H       1  UNL1        0.0654
     57 H           5.5030    3.9729    0.0000 H       1  UNL1        0.0654
     58 H           4.1001    1.5428    0.0000 H       1  UNL1        0.0654
     59 H           3.7865    1.4979    0.0000 H       1  UNL1        0.2922
     60 H          11.1680   -0.2494    0.0000 H       1  UNL1        0.2922
     61 H           2.0000   -1.5691    0.0000 H       1  UNL1        0.2921
     62 H          11.7978    3.2437    0.0000 H       1  UNL1        0.2921
     63 H           9.7784   -4.3529    0.0000 H       1  UNL1        0.0660
     64 H          10.3984   -4.9729    0.0000 H       1  UNL1        0.0660
     65 H          11.0184   -4.3529    0.0000 H       1  UNL1        0.0660
     66 H           4.3909    4.3529    0.0000 H       1  UNL1        0.0660
     67 H           3.7709    4.9729    0.0000 H       1  UNL1        0.0660
     68 H           3.1509    4.3529    0.0000 H       1  UNL1        0.0660
@<TRIPOS>BOND
     1     1    13    1
     2     1    21    1
     3     2    14    1
     4     2    22    1
     5     3    15    2
     6     4    16    2
     7     5    23    1
     8     5    59    1
     9     6    24    1
    10     6    60    1
    11     7    33    1
    12     7    61    1
    13     8    34    1
    14     8    62    1
    15     9    39    1
    16     9    41    1
    17    10    40    1
    18    10    42    1
    19    11    12    1
    20    11    13    1
    21    11    15    1
    22    11    43    1
    23    12    14    1
    24    12    16    1
    25    12    44    1
    26    13    17    1
    27    13    45    1
    28    14    18    1
    29    14    46    1
    30    15    19    1
    31    16    20    1
    32    17    25   ar
    33    17    26   ar
    34    18    27   ar
    35    18    28   ar
    36    19    21   ar
    37    19    23   ar
    38    20    22   ar
    39    20    24   ar
    40    21    29   ar
    41    22    30   ar
    42    23    31   ar
    43    24    32   ar
    44    25    35   ar
    45    25    47    1
    46    26    36   ar
    47    26    48    1
    48    27    37   ar
    49    27    49    1
    50    28    38   ar
    51    28    50    1
    52    29    33   ar
    53    29    51    1
    54    30    34   ar
    55    30    52    1
    56    31    33   ar
    57    31    53    1
    58    32    34   ar
    59    32    54    1
    60    35    39   ar
    61    35    55    1
    62    36    39   ar
    63    36    56    1
    64    37    40   ar
    65    37    57    1
    66    38    40   ar
    67    38    58    1
    68    41    63    1
    69    41    64    1
    70    41    65    1
    71    42    66    1
    72    42    67    1
    73    42    68    1
