@<TRIPOS>MOLECULE
IMPHY011606
 26 28 0 0 0
SMALL
GASTEIGER

@<TRIPOS>ATOM
      1 O           6.7889   -1.3310    0.0000 O.3     1  UNL1       -0.3795
      2 N           5.5321    0.9242    0.0000 N.pl3   1  UNL1       -0.2178
      3 N           4.6660   -0.5758    0.0000 N.2     1  UNL1       -0.0434
      4 C           6.4783    1.2290    0.0000 C.3     1  UNL1        0.0836
      5 C           7.0619    0.4242    0.0000 C.3     1  UNL1        0.0207
      6 C           6.4783   -0.3805    0.0000 C.3     1  UNL1        0.1607
      7 C           5.5321   -0.0758    0.0000 C.2     1  UNL1        0.3184
      8 C           4.6660    1.4242    0.0000 C.3     1  UNL1        0.1097
      9 C           3.8000    0.9242    0.0000 C.ar    1  UNL1        0.0425
     10 C           3.8000   -0.0758    0.0000 C.ar    1  UNL1        0.1829
     11 C           2.9061    1.4589    0.0000 C.ar    1  UNL1       -0.0509
     12 C           2.9061   -0.6104    0.0000 C.ar    1  UNL1       -0.0105
     13 C           2.0000    0.9450    0.0000 C.ar    1  UNL1       -0.0611
     14 C           2.0000   -0.0966    0.0000 C.ar    1  UNL1       -0.0576
     15 H           7.0157    1.5382    0.0000 H       1  UNL1        0.0727
     16 H           6.2272    1.7959    0.0000 H       1  UNL1        0.0727
     17 H           7.5228    0.0095    0.0000 H       1  UNL1        0.0332
     18 H           7.5228    0.8390    0.0000 H       1  UNL1        0.0332
     19 H           7.0908   -0.4767    0.0000 H       1  UNL1        0.0721
     20 H           5.0646    1.8992    0.0000 H       1  UNL1        0.0779
     21 H           4.2675    1.8992    0.0000 H       1  UNL1        0.0779
     22 H           2.9132    2.0788    0.0000 H       1  UNL1        0.0623
     23 H           7.3956   -1.4589    0.0000 H       1  UNL1        0.2106
     24 H           2.9132   -1.2304    0.0000 H       1  UNL1        0.0661
     25 H           1.4643    1.2571    0.0000 H       1  UNL1        0.0618
     26 H           1.4643   -0.4087    0.0000 H       1  UNL1        0.0619
@<TRIPOS>BOND
     1     6     1    1
     2     1    23    1
     3     2     4    1
     4     2     7    1
     5     2     8    1
     6     3     7    2
     7     3    10    1
     8     4     5    1
     9     4    15    1
    10     4    16    1
    11     5     6    1
    12     5    17    1
    13     5    18    1
    14     6     7    1
    15     6    19    1
    16     8     9    1
    17     8    20    1
    18     8    21    1
    19     9    10   ar
    20     9    11   ar
    21    10    12   ar
    22    11    13   ar
    23    11    22    1
    24    12    14   ar
    25    12    24    1
    26    13    14   ar
    27    13    25    1
    28    14    26    1
