@<TRIPOS>MOLECULE
IMPHY010583
 42 45 0 0 0
SMALL
GASTEIGER

@<TRIPOS>ATOM
      1 O           5.5103    1.4129    0.0000 O.3     1  UNL1       -0.4908
      2 O           7.2762    2.4507    0.0000 O.3     1  UNL1       -0.5033
      3 O           2.8680   -0.0944    0.0000 O.3     1  UNL1       -0.4914
      4 O           2.8680   -2.1427    0.0000 O.3     1  UNL1       -0.5033
      5 N           8.1223   -2.1155    0.0000 N.3     1  UNL1       -0.3087
      6 C           7.2641   -1.6186    0.0000 C.3     1  UNL1        0.0378
      7 C           7.2641   -0.6186    0.0000 C.ar    1  UNL1       -0.0155
      8 C           6.3981   -2.1186    0.0000 C.3     1  UNL1       -0.0074
      9 C           8.1741   -0.1117    0.0000 C.ar    1  UNL1       -0.0372
     10 C           6.3981   -0.1186    0.0000 C.ar    1  UNL1        0.0327
     11 C           9.0134   -0.6400    0.0000 C.3     1  UNL1       -0.0146
     12 C           5.5320   -1.6186    0.0000 C.ar    1  UNL1       -0.0341
     13 C           8.9878   -1.6313    0.0000 C.3     1  UNL1        0.0004
     14 C           5.5320   -0.6186    0.0000 C.ar    1  UNL1       -0.0070
     15 C           6.3820    0.9229    0.0000 C.ar    1  UNL1        0.1693
     16 C           8.1821    0.9299    0.0000 C.ar    1  UNL1       -0.0130
     17 C           7.2800    1.4507    0.0000 C.ar    1  UNL1        0.1593
     18 C           4.6381   -2.1532    0.0000 C.ar    1  UNL1       -0.0127
     19 C           4.6381   -0.0839    0.0000 C.ar    1  UNL1       -0.0082
     20 C           3.7320   -0.5978    0.0000 C.ar    1  UNL1        0.1619
     21 C           3.7320   -1.6394    0.0000 C.ar    1  UNL1        0.1587
     22 C           5.4987    2.4128    0.0000 C.3     1  UNL1        0.0790
     23 C           2.0000   -0.5911    0.0000 C.3     1  UNL1        0.0790
     24 H           7.2636   -2.4686    0.0000 H       1  UNL1        0.0513
     25 H           5.9995   -2.5935    0.0000 H       1  UNL1        0.0332
     26 H           6.7966   -2.5935    0.0000 H       1  UNL1        0.0332
     27 H           8.1177   -2.7355    0.0000 H       1  UNL1        0.1225
     28 H           9.6205   -0.7659    0.0000 H       1  UNL1        0.0326
     29 H           9.2452   -0.0649    0.0000 H       1  UNL1        0.0326
     30 H           9.1895   -2.2176    0.0000 H       1  UNL1        0.0427
     31 H           9.6006   -1.5370    0.0000 H       1  UNL1        0.0427
     32 H           8.7203    1.2378    0.0000 H       1  UNL1        0.0658
     33 H           4.6453   -2.7732    0.0000 H       1  UNL1        0.0658
     34 H           4.6453    0.5360    0.0000 H       1  UNL1        0.0661
     35 H           7.8119    2.7627    0.0000 H       1  UNL1        0.2923
     36 H           6.1187    2.4200    0.0000 H       1  UNL1        0.0660
     37 H           5.4915    3.0328    0.0000 H       1  UNL1        0.0660
     38 H           4.8787    2.4056    0.0000 H       1  UNL1        0.0660
     39 H           2.8703   -2.7627    0.0000 H       1  UNL1        0.2923
     40 H           1.6921   -0.0530    0.0000 H       1  UNL1        0.0660
     41 H           1.4619   -0.8990    0.0000 H       1  UNL1        0.0660
     42 H           2.3079   -1.1292    0.0000 H       1  UNL1        0.0660
@<TRIPOS>BOND
     1     1    15    1
     2     1    22    1
     3     2    17    1
     4     2    35    1
     5     3    20    1
     6     3    23    1
     7     4    21    1
     8     4    39    1
     9     5     6    1
    10     5    13    1
    11     5    27    1
    12     6     7    1
    13     6     8    1
    14     6    24    1
    15     7     9   ar
    16     7    10   ar
    17     8    12    1
    18     8    25    1
    19     8    26    1
    20     9    11    1
    21     9    16   ar
    22    10    14    1
    23    10    15   ar
    24    11    13    1
    25    11    28    1
    26    11    29    1
    27    12    14   ar
    28    12    18   ar
    29    13    30    1
    30    13    31    1
    31    14    19   ar
    32    15    17   ar
    33    16    17   ar
    34    16    32    1
    35    18    21   ar
    36    18    33    1
    37    19    20   ar
    38    19    34    1
    39    20    21   ar
    40    22    36    1
    41    22    37    1
    42    22    38    1
    43    23    40    1
    44    23    41    1
    45    23    42    1
