@<TRIPOS>MOLECULE
IMPHY017523
 25 25 0 0 0
SMALL
GASTEIGER

@<TRIPOS>ATOM
      1 O           2.0000   -0.2500    0.0000 O.2     1  UNL1       -0.2971
      2 C           3.7320   -0.2500    0.0000 C.3     1  UNL1        0.0283
      3 C           4.5981   -0.7500    0.0000 C.3     1  UNL1       -0.0426
      4 C           4.5981   -1.7500    0.0000 C.3     1  UNL1       -0.0520
      5 C           3.7320   -2.2500    0.0000 C.3     1  UNL1       -0.0463
      6 C           2.8660   -1.7500    0.0000 C.3     1  UNL1        0.0061
      7 C           2.8660   -0.7500    0.0000 C.2     1  UNL1        0.1373
      8 C           3.7320    0.7500    0.0000 C.3     1  UNL1        0.0186
      9 C           4.5981    1.2500    0.0000 C.1     1  UNL1       -0.1018
     10 C           5.4641    1.7500    0.0000 C.1     1  UNL1       -0.1056
     11 C           6.3301    2.2500    0.0000 C.3     1  UNL1       -0.0026
     12 H           4.4682    0.1750    0.0000 H       1  UNL1        0.0386
     13 H           5.2087   -0.8577    0.0000 H       1  UNL1        0.0272
     14 H           4.8101   -0.1674    0.0000 H       1  UNL1        0.0272
     15 H           4.8101   -2.3326    0.0000 H       1  UNL1        0.0266
     16 H           5.2087   -1.6423    0.0000 H       1  UNL1        0.0266
     17 H           3.3335   -2.7250    0.0000 H       1  UNL1        0.0269
     18 H           4.1306   -2.7250    0.0000 H       1  UNL1        0.0269
     19 H           2.2554   -1.6423    0.0000 H       1  UNL1        0.0342
     20 H           2.6540   -2.3326    0.0000 H       1  UNL1        0.0342
     21 H           3.5200    1.3326    0.0000 H       1  UNL1        0.0404
     22 H           3.1215    0.6423    0.0000 H       1  UNL1        0.0404
     23 H           6.6401    1.7131    0.0000 H       1  UNL1        0.0362
     24 H           6.8671    2.5600    0.0000 H       1  UNL1        0.0362
     25 H           6.0201    2.7869    0.0000 H       1  UNL1        0.0362
@<TRIPOS>BOND
     1     1     7    2
     2     2     3    1
     3     2     7    1
     4     2     8    1
     5     2    12    1
     6     3     4    1
     7     3    13    1
     8     3    14    1
     9     4     5    1
    10     4    15    1
    11     4    16    1
    12     5     6    1
    13     5    17    1
    14     5    18    1
    15     6     7    1
    16     6    19    1
    17     6    20    1
    18     8     9    1
    19     8    21    1
    20     8    22    1
    21     9    10    3
    22    10    11    1
    23    11    23    1
    24    11    24    1
    25    11    25    1
