@<TRIPOS>MOLECULE
IMPHY000995
 49 53 0 0 0
SMALL
GASTEIGER

@<TRIPOS>ATOM
      1 O           2.5282   -1.5663    0.0000 O.3     1  UNL1       -0.4951
      2 N           7.1985    1.7090    0.0000 N.3     1  UNL1       -0.2979
      3 N           6.5625   -1.4664    0.0000 N.ar    1  UNL1       -0.3574
      4 C           7.8220    0.9271    0.0000 C.3     1  UNL1        0.0214
      5 C           7.5995   -0.0478    0.0000 C.3     1  UNL1        0.0157
      6 C           9.3498   -0.4686    0.0000 C.3     1  UNL1       -0.0273
      7 C           8.8125    1.2494    0.0000 C.3     1  UNL1       -0.0247
      8 C           8.3521   -0.7680    0.0000 C.3     1  UNL1       -0.0394
      9 C           9.5815    0.5469    0.0000 C.3     1  UNL1       -0.0448
     10 C           8.9028    1.2412    0.0000 C.3     1  UNL1        0.0021
     11 C           6.6985   -0.4817    0.0000 C.ar    1  UNL1        0.0249
     12 C           6.1985    1.7090    0.0000 C.3     1  UNL1        0.0033
     13 C           9.0238    2.2269    0.0000 C.3     1  UNL1       -0.0516
     14 C           5.7976   -0.0478    0.0000 C.ar    1  UNL1       -0.0175
     15 C           5.5750    0.9271    0.0000 C.3     1  UNL1       -0.0126
     16 C           5.1125   -0.7681    0.0000 C.ar    1  UNL1        0.0066
     17 C           9.9759    2.5327    0.0000 C.3     1  UNL1       -0.0650
     18 C           5.5843   -1.6431    0.0000 C.ar    1  UNL1        0.0472
     19 C           4.0780   -0.7221    0.0000 C.ar    1  UNL1       -0.0105
     20 C           5.0544   -2.5327    0.0000 C.ar    1  UNL1       -0.0343
     21 C           3.5277   -1.5992    0.0000 C.ar    1  UNL1        0.1208
     22 C           4.0192   -2.5106    0.0000 C.ar    1  UNL1       -0.0180
     23 C           2.0000   -2.4154    0.0000 C.3     1  UNL1        0.0788
     24 H           8.0112    1.7558    0.0000 H       1  UNL1        0.0472
     25 H           7.4104   -0.8765    0.0000 H       1  UNL1        0.0379
     26 H           9.5647   -1.2910    0.0000 H       1  UNL1        0.0313
     27 H           9.4032    1.4379    0.0000 H       1  UNL1        0.0316
     28 H           7.8531   -1.1360    0.0000 H       1  UNL1        0.0275
     29 H           8.6292   -1.3226    0.0000 H       1  UNL1        0.0275
     30 H          10.1535    0.3075    0.0000 H       1  UNL1        0.0271
     31 H           9.9152    1.0694    0.0000 H       1  UNL1        0.0271
     32 H           9.5207    1.2914    0.0000 H       1  UNL1        0.0429
     33 H           8.9606    1.8585    0.0000 H       1  UNL1        0.0429
     34 H           6.3365    2.3134    0.0000 H       1  UNL1        0.0430
     35 H           5.6399    1.9780    0.0000 H       1  UNL1        0.0430
     36 H           8.9396    2.8412    0.0000 H       1  UNL1        0.0266
     37 H           8.4042    2.2506    0.0000 H       1  UNL1        0.0266
     38 H           5.1885    1.4118    0.0000 H       1  UNL1        0.0326
     39 H           5.0164    0.6581    0.0000 H       1  UNL1        0.0326
     40 H           7.0099   -1.8957    0.0000 H       1  UNL1        0.1656
     41 H          10.1654    1.9424    0.0000 H       1  UNL1        0.0230
     42 H          10.5662    2.7223    0.0000 H       1  UNL1        0.0230
     43 H           9.7863    3.1230    0.0000 H       1  UNL1        0.0230
     44 H           3.7901   -0.1730    0.0000 H       1  UNL1        0.0661
     45 H           5.3549   -3.0750    0.0000 H       1  UNL1        0.0639
     46 H           3.6957   -3.0395    0.0000 H       1  UNL1        0.0655
     47 H           1.4736   -2.0879    0.0000 H       1  UNL1        0.0660
     48 H           1.6725   -2.9418    0.0000 H       1  UNL1        0.0660
     49 H           2.5264   -2.7429    0.0000 H       1  UNL1        0.0660
@<TRIPOS>BOND
     1     1    21    1
     2     1    23    1
     3     2     4    1
     4     2    10    1
     5     2    12    1
     6     3    11   ar
     7     3    18   ar
     8     3    40    1
     9     4     5    1
    10     4     7    1
    11     4    24    1
    12     5     8    1
    13     5    11    1
    14     5    25    1
    15     6     8    1
    16     6     9    1
    17     6    10    1
    18     6    26    1
    19     7     9    1
    20     7    13    1
    21     7    27    1
    22     8    28    1
    23     8    29    1
    24     9    30    1
    25     9    31    1
    26    10    32    1
    27    10    33    1
    28    11    14   ar
    29    12    15    1
    30    12    34    1
    31    12    35    1
    32    13    17    1
    33    13    36    1
    34    13    37    1
    35    14    15    1
    36    14    16   ar
    37    15    38    1
    38    15    39    1
    39    16    18   ar
    40    16    19   ar
    41    17    41    1
    42    17    42    1
    43    17    43    1
    44    18    20   ar
    45    19    21   ar
    46    19    44    1
    47    20    22   ar
    48    20    45    1
    49    21    22   ar
    50    22    46    1
    51    23    47    1
    52    23    48    1
    53    23    49    1
