@<TRIPOS>MOLECULE
IMPHY004593
 29 29 0 0 0
SMALL
GASTEIGER

@<TRIPOS>ATOM
      1 O           2.8660   -3.5000    0.0000 O.3     1  UNL1       -0.4951
      2 O           4.5981    2.5000    0.0000 O.3     1  UNL1       -0.4618
      3 O           2.8660    2.5000    0.0000 O.2     1  UNL1       -0.2456
      4 C           2.8660   -0.5000    0.0000 C.ar    1  UNL1       -0.0246
      5 C           2.0000   -1.0000    0.0000 C.ar    1  UNL1       -0.0511
      6 C           3.7320   -1.0000    0.0000 C.ar    1  UNL1       -0.0511
      7 C           2.8660   -2.5000    0.0000 C.ar    1  UNL1        0.1201
      8 C           2.0000   -2.0000    0.0000 C.ar    1  UNL1       -0.0194
      9 C           3.7320   -2.0000    0.0000 C.ar    1  UNL1       -0.0194
     10 C           2.8660    0.5000    0.0000 C.2     1  UNL1       -0.0478
     11 C           3.7320    1.0000    0.0000 C.2     1  UNL1        0.0231
     12 C           4.5981    3.5000    0.0000 C.3     1  UNL1        0.0900
     13 C           3.7320    2.0000    0.0000 C.2     1  UNL1        0.3319
     14 C           5.4641    4.0000    0.0000 C.3     1  UNL1       -0.0306
     15 C           2.0000   -4.0000    0.0000 C.3     1  UNL1        0.0788
     16 H           1.4631   -0.6900    0.0000 H       1  UNL1        0.0625
     17 H           4.2690   -0.6900    0.0000 H       1  UNL1        0.0625
     18 H           1.4631   -2.3100    0.0000 H       1  UNL1        0.0654
     19 H           4.2690   -2.3100    0.0000 H       1  UNL1        0.0654
     20 H           2.3291    0.8100    0.0000 H       1  UNL1        0.0626
     21 H           4.2690    0.6900    0.0000 H       1  UNL1        0.0689
     22 H           4.3860    4.0826    0.0000 H       1  UNL1        0.0695
     23 H           3.9875    3.3923    0.0000 H       1  UNL1        0.0695
     24 H           5.7741    3.4631    0.0000 H       1  UNL1        0.0262
     25 H           6.0010    4.3100    0.0000 H       1  UNL1        0.0262
     26 H           5.1541    4.5369    0.0000 H       1  UNL1        0.0262
     27 H           1.6900   -3.4631    0.0000 H       1  UNL1        0.0660
     28 H           1.4631   -4.3100    0.0000 H       1  UNL1        0.0660
     29 H           2.3100   -4.5369    0.0000 H       1  UNL1        0.0660
@<TRIPOS>BOND
     1     1     7    1
     2     1    15    1
     3     2    12    1
     4     2    13    1
     5     3    13    2
     6     4     5   ar
     7     4     6   ar
     8     4    10    1
     9     5     8   ar
    10     5    16    1
    11     6     9   ar
    12     6    17    1
    13     7     8   ar
    14     7     9   ar
    15     8    18    1
    16     9    19    1
    17    10    11    2
    18    10    20    1
    19    11    13    1
    20    11    21    1
    21    12    14    1
    22    12    22    1
    23    12    23    1
    24    14    24    1
    25    14    25    1
    26    14    26    1
    27    15    27    1
    28    15    28    1
    29    15    29    1
