@<TRIPOS>MOLECULE
IMPHY015921
 137 144 0 0 0
SMALL
GASTEIGER

@<TRIPOS>ATOM
      1 O           8.5991   -2.6210    0.0000 O.3     1  UNL1       -0.3379
      2 O          11.8999    4.2290    0.0000 O.3     1  UNL1       -0.4318
      3 O          10.2098    4.6079    0.0000 O.2     1  UNL1       -0.2501
      4 O           6.8671   -2.6210    0.0000 O.3     1  UNL1       -0.3405
      5 O           8.5991   -4.6210    0.0000 O.3     1  UNL1       -0.3377
      6 O           6.8671   -5.6210    0.0000 O.3     1  UNL1       -0.3400
      7 O          11.3830    5.8821    0.0000 O.3     1  UNL1       -0.3312
      8 O           5.1350   -4.6210    0.0000 O.3     1  UNL1       -0.3865
      9 O          13.8088    4.8259    0.0000 O.3     1  UNL1       -0.3829
     10 O           9.4651   -3.1210    0.0000 O.3     1  UNL1       -0.3405
     11 O           5.1350   -1.6210    0.0000 O.3     1  UNL1       -0.3924
     12 O          14.2463    6.7774    0.0000 O.3     1  UNL1       -0.3864
     13 O           5.1350   -5.6210    0.0000 O.3     1  UNL1       -0.3405
     14 O          12.7749    8.1321    0.0000 O.3     1  UNL1       -0.3865
     15 O          10.3312   -5.6210    0.0000 O.3     1  UNL1       -0.3841
     16 O           6.8671   -7.6210    0.0000 O.3     1  UNL1       -0.3841
     17 O          12.0632   -4.6210    0.0000 O.3     1  UNL1       -0.3864
     18 O          11.0848    8.5110    0.0000 O.3     1  UNL1       -0.3924
     19 O          12.0632   -2.6210    0.0000 O.3     1  UNL1       -0.3865
     20 O           5.1350   -8.6210    0.0000 O.3     1  UNL1       -0.3864
     21 O           3.4030   -7.6210    0.0000 O.3     1  UNL1       -0.3865
     22 O          11.1972   -1.1210    0.0000 O.3     1  UNL1       -0.3924
     23 O           2.5369   -6.1210    0.0000 O.3     1  UNL1       -0.3924
     24 C           8.5991    0.6260    0.0000 C.3     1  UNL1       -0.0192
     25 C           9.5740    0.4035    0.0000 C.3     1  UNL1       -0.0292
     26 C          10.2942    1.1561    0.0000 C.3     1  UNL1       -0.0249
     27 C           9.9949    2.1538    0.0000 C.3     1  UNL1       -0.0198
     28 C           8.9651   -0.4975    0.0000 C.3     1  UNL1       -0.0135
     29 C           8.5991   -1.6210    0.0000 C.3     1  UNL1        0.0939
     30 C           8.2768    1.6165    0.0000 C.3     1  UNL1       -0.0464
     31 C          10.0079   -0.4975    0.0000 C.3     1  UNL1       -0.0463
     32 C           7.8173    0.0025    0.0000 C.3     1  UNL1       -0.0233
     33 C           8.9794    2.3855    0.0000 C.3     1  UNL1       -0.0482
     34 C          10.7267    2.9548    0.0000 C.3     1  UNL1        0.0683
     35 C          11.3461    0.8902    0.0000 C.3     1  UNL1       -0.0470
     36 C           9.5740   -1.3984    0.0000 C.3     1  UNL1       -0.0195
     37 C           7.8173   -0.9975    0.0000 C.2     1  UNL1       -0.0446
     38 C          10.8919    0.3543    0.0000 C.3     1  UNL1       -0.0590
     39 C          11.7845    2.7133    0.0000 C.3     1  UNL1       -0.0372
     40 C          12.0963    1.6741    0.0000 C.3     1  UNL1       -0.0515
     41 C           9.9910    3.6321    0.0000 C.3     1  UNL1       -0.0491
     42 C          10.9455    3.9306    0.0000 C.2     1  UNL1        0.3156
     43 C           6.9163   -1.4313    0.0000 C.2     1  UNL1       -0.0967
     44 C           7.7331   -3.1210    0.0000 C.3     1  UNL1        0.1893
     45 C           7.7331   -4.1210    0.0000 C.3     1  UNL1        0.1410
     46 C           6.8671   -4.6210    0.0000 C.3     1  UNL1        0.1209
     47 C          12.1187    5.2048    0.0000 C.3     1  UNL1        0.2337
     48 C           6.0010   -3.1210    0.0000 C.3     1  UNL1        0.1130
     49 C           6.0010   -4.1210    0.0000 C.3     1  UNL1        0.1123
     50 C          13.0731    5.5032    0.0000 C.3     1  UNL1        0.1455
     51 C           5.1350   -2.6210    0.0000 C.3     1  UNL1        0.0730
     52 C           9.4651   -4.1210    0.0000 C.3     1  UNL1        0.1885
     53 C          13.2918    6.4790    0.0000 C.3     1  UNL1        0.1152
     54 C          11.6018    6.8579    0.0000 C.3     1  UNL1        0.1140
     55 C          12.5562    7.1563    0.0000 C.3     1  UNL1        0.1120
     56 C           6.0010   -6.1210    0.0000 C.3     1  UNL1        0.1884
     57 C          10.3312   -4.6210    0.0000 C.3     1  UNL1        0.1341
     58 C           6.0010   -7.1210    0.0000 C.3     1  UNL1        0.1341
     59 C          10.8661    7.5352    0.0000 C.3     1  UNL1        0.0731
     60 C          11.1972   -4.1210    0.0000 C.3     1  UNL1        0.1141
     61 C          10.3312   -2.6210    0.0000 C.3     1  UNL1        0.1130
     62 C          11.1972   -3.1210    0.0000 C.3     1  UNL1        0.1119
     63 C           5.1350   -7.6210    0.0000 C.3     1  UNL1        0.1141
     64 C           4.2690   -6.1210    0.0000 C.3     1  UNL1        0.1130
     65 C           4.2690   -7.1210    0.0000 C.3     1  UNL1        0.1119
     66 C          10.3312   -1.6210    0.0000 C.3     1  UNL1        0.0730
     67 C           3.4030   -5.6210    0.0000 C.3     1  UNL1        0.0730
     68 H          10.4027    0.2144    0.0000 H       1  UNL1        0.0312
     69 H           9.7412    2.9650    0.0000 H       1  UNL1        0.0317
     70 H           9.4666   -0.8620    0.0000 H       1  UNL1        0.0302
     71 H           9.4666   -0.1329    0.0000 H       1  UNL1        0.0302
     72 H           7.8974    2.1069    0.0000 H       1  UNL1        0.0271
     73 H           7.7287    1.3266    0.0000 H       1  UNL1        0.0271
     74 H          10.4927   -0.8840    0.0000 H       1  UNL1        0.0269
     75 H          10.4927   -0.1109    0.0000 H       1  UNL1        0.0269
     76 H           7.5483    0.5611    0.0000 H       1  UNL1        0.0316
     77 H           7.2128   -0.1354    0.0000 H       1  UNL1        0.0316
     78 H           9.2187    2.9575    0.0000 H       1  UNL1        0.0269
     79 H           8.4568    2.7192    0.0000 H       1  UNL1        0.0269
     80 H          11.0936    0.3240    0.0000 H       1  UNL1        0.0271
     81 H          11.8608    0.5445    0.0000 H       1  UNL1        0.0271
     82 H           9.5740   -2.0184    0.0000 H       1  UNL1        0.0296
     83 H          10.1785   -1.5364    0.0000 H       1  UNL1        0.0296
     84 H          10.3948   -0.0162    0.0000 H       1  UNL1        0.0235
     85 H          11.2624   -0.1428    0.0000 H       1  UNL1        0.0235
     86 H          11.3890    0.7248    0.0000 H       1  UNL1        0.0235
     87 H          12.4001    2.7873    0.0000 H       1  UNL1        0.0276
     88 H          11.8170    3.3325    0.0000 H       1  UNL1        0.0276
     89 H          12.4643    1.1751    0.0000 H       1  UNL1        0.0266
     90 H          12.6509    1.9513    0.0000 H       1  UNL1        0.0266
     91 H          10.4110    4.0882    0.0000 H       1  UNL1        0.0240
     92 H           9.5349    4.0521    0.0000 H       1  UNL1        0.0240
     93 H           9.5711    3.1760    0.0000 H       1  UNL1        0.0240
     94 H           6.4040   -1.0821    0.0000 H       1  UNL1        0.0535
     95 H           6.8700   -2.0496    0.0000 H       1  UNL1        0.0535
     96 H           7.7331   -2.5010    0.0000 H       1  UNL1        0.0938
     97 H           7.7331   -4.7410    0.0000 H       1  UNL1        0.0675
     98 H           6.3301   -4.9310    0.0000 H       1  UNL1        0.0651
     99 H          12.5748    4.7848    0.0000 H       1  UNL1        0.1085
    100 H           6.0010   -2.5010    0.0000 H       1  UNL1        0.0647
    101 H           5.4641   -3.8110    0.0000 H       1  UNL1        0.0647
    102 H          13.6648    5.6882    0.0000 H       1  UNL1        0.0683
    103 H           4.5244   -2.5133    0.0000 H       1  UNL1        0.0584
    104 H           4.9230   -3.2036    0.0000 H       1  UNL1        0.0584
    105 H           9.4651   -4.7410    0.0000 H       1  UNL1        0.0938
    106 H          13.4275    7.0840    0.0000 H       1  UNL1        0.0648
    107 H          11.0100    6.6728    0.0000 H       1  UNL1        0.0647
    108 H           4.5981   -4.3110    0.0000 H       1  UNL1        0.2100
    109 H          12.1001    7.5763    0.0000 H       1  UNL1        0.0647
    110 H           6.5380   -6.4310    0.0000 H       1  UNL1        0.0938
    111 H          10.8681   -4.9310    0.0000 H       1  UNL1        0.0671
    112 H          14.4005    5.0109    0.0000 H       1  UNL1        0.2102
    113 H           4.5981   -1.3110    0.0000 H       1  UNL1        0.2095
    114 H           6.0010   -7.7410    0.0000 H       1  UNL1        0.0671
    115 H          11.1972   -4.7410    0.0000 H       1  UNL1        0.0648
    116 H          10.2938    7.7738    0.0000 H       1  UNL1        0.0584
    117 H          10.5317    7.0131    0.0000 H       1  UNL1        0.0584
    118 H           9.7942   -2.3110    0.0000 H       1  UNL1        0.0647
    119 H          14.3819    7.3824    0.0000 H       1  UNL1        0.2100
    120 H          11.7341   -3.4310    0.0000 H       1  UNL1        0.0647
    121 H           4.5981   -7.9310    0.0000 H       1  UNL1        0.0648
    122 H          13.3667    8.3171    0.0000 H       1  UNL1        0.2100
    123 H           4.2690   -5.5010    0.0000 H       1  UNL1        0.0647
    124 H           4.2690   -7.7410    0.0000 H       1  UNL1        0.0647
    125 H          10.8681   -5.9310    0.0000 H       1  UNL1        0.2101
    126 H          10.1191   -1.0384    0.0000 H       1  UNL1        0.0584
    127 H           9.7206   -1.7286    0.0000 H       1  UNL1        0.0584
    128 H           7.4040   -7.3110    0.0000 H       1  UNL1        0.2101
    129 H          12.6002   -4.3110    0.0000 H       1  UNL1        0.2100
    130 H          10.6287    8.9310    0.0000 H       1  UNL1        0.2095
    131 H           3.8015   -5.1460    0.0000 H       1  UNL1        0.0584
    132 H           3.0044   -5.1460    0.0000 H       1  UNL1        0.0584
    133 H          12.0632   -2.0010    0.0000 H       1  UNL1        0.2100
    134 H           4.5981   -8.9310    0.0000 H       1  UNL1        0.2100
    135 H           3.4030   -8.2410    0.0000 H       1  UNL1        0.2100
    136 H          11.1972   -0.5010    0.0000 H       1  UNL1        0.2095
    137 H           2.0000   -5.8110    0.0000 H       1  UNL1        0.2095
@<TRIPOS>BOND
     1    29     1    1
     2    44     1    1
     3     2    42    1
     4    47     2    1
     5     3    42    2
     6     4    44    1
     7     4    48    1
     8    45     5    1
     9    52     5    1
    10    46     6    1
    11    56     6    1
    12     7    47    1
    13     7    54    1
    14    49     8    1
    15     8   108    1
    16    50     9    1
    17     9   112    1
    18    10    52    1
    19    10    61    1
    20    11    51    1
    21    11   113    1
    22    53    12    1
    23    12   119    1
    24    13    56    1
    25    13    64    1
    26    55    14    1
    27    14   122    1
    28    57    15    1
    29    15   125    1
    30    58    16    1
    31    16   128    1
    32    60    17    1
    33    17   129    1
    34    18    59    1
    35    18   130    1
    36    62    19    1
    37    19   133    1
    38    63    20    1
    39    20   134    1
    40    65    21    1
    41    21   135    1
    42    22    66    1
    43    22   136    1
    44    23    67    1
    45    23   137    1
    46    24    25    1
    47    24    28    1
    48    24    30    1
    49    24    32    1
    50    25    26    1
    51    25    31    1
    52    25    68    1
    53    26    27    1
    54    26    35    1
    55    26    38    1
    56    27    33    1
    57    27    34    1
    58    27    69    1
    59    28    29    1
    60    28    70    1
    61    28    71    1
    62    29    36    1
    63    29    37    1
    64    30    33    1
    65    30    72    1
    66    30    73    1
    67    31    36    1
    68    31    74    1
    69    31    75    1
    70    32    37    1
    71    32    76    1
    72    32    77    1
    73    33    78    1
    74    33    79    1
    75    34    39    1
    76    34    41    1
    77    34    42    1
    78    35    40    1
    79    35    80    1
    80    35    81    1
    81    36    82    1
    82    36    83    1
    83    37    43    2
    84    38    84    1
    85    38    85    1
    86    38    86    1
    87    39    40    1
    88    39    87    1
    89    39    88    1
    90    40    89    1
    91    40    90    1
    92    41    91    1
    93    41    92    1
    94    41    93    1
    95    43    94    1
    96    43    95    1
    97    44    45    1
    98    44    96    1
    99    45    46    1
   100    45    97    1
   101    46    49    1
   102    46    98    1
   103    47    50    1
   104    47    99    1
   105    48    49    1
   106    48    51    1
   107    48   100    1
   108    49   101    1
   109    50    53    1
   110    50   102    1
   111    51   103    1
   112    51   104    1
   113    52    57    1
   114    52   105    1
   115    53    55    1
   116    53   106    1
   117    54    55    1
   118    54    59    1
   119    54   107    1
   120    55   109    1
   121    56    58    1
   122    56   110    1
   123    57    60    1
   124    57   111    1
   125    58    63    1
   126    58   114    1
   127    59   116    1
   128    59   117    1
   129    60    62    1
   130    60   115    1
   131    61    62    1
   132    61    66    1
   133    61   118    1
   134    62   120    1
   135    63    65    1
   136    63   121    1
   137    64    65    1
   138    64    67    1
   139    64   123    1
   140    65   124    1
   141    66   126    1
   142    66   127    1
   143    67   131    1
   144    67   132    1
