@<TRIPOS>MOLECULE
IMPHY013766
 21 22 0 0 0
SMALL
GASTEIGER

@<TRIPOS>ATOM
      1 O           2.8660   -1.5173    0.0000 O.2     1  UNL1       -0.2921
      2 C           2.0000    0.9827    0.0000 C.3     1  UNL1       -0.0420
      3 C           2.8660    1.4827    0.0000 C.3     1  UNL1       -0.0266
      4 C           2.0000   -0.0173    0.0000 C.3     1  UNL1        0.0108
      5 C           3.7320    0.9827    0.0000 C.ar    1  UNL1       -0.0369
      6 C           3.7320   -0.0173    0.0000 C.ar    1  UNL1        0.0206
      7 C           2.8660   -0.5173    0.0000 C.2     1  UNL1        0.1634
      8 C           4.6260    1.5173    0.0000 C.ar    1  UNL1       -0.0579
      9 C           4.6260   -0.5520    0.0000 C.ar    1  UNL1       -0.0510
     10 C           5.5321    1.0035    0.0000 C.ar    1  UNL1       -0.0615
     11 C           5.5321   -0.0381    0.0000 C.ar    1  UNL1       -0.0611
     12 H           1.7880    1.5653    0.0000 H       1  UNL1        0.0272
     13 H           1.3894    0.8750    0.0000 H       1  UNL1        0.0272
     14 H           3.2646    1.9576    0.0000 H       1  UNL1        0.0313
     15 H           2.4675    1.9576    0.0000 H       1  UNL1        0.0313
     16 H           1.3894    0.0903    0.0000 H       1  UNL1        0.0345
     17 H           1.7880   -0.5999    0.0000 H       1  UNL1        0.0345
     18 H           4.6188    2.1373    0.0000 H       1  UNL1        0.0620
     19 H           4.6188   -1.1720    0.0000 H       1  UNL1        0.0625
     20 H           6.0678    1.3156    0.0000 H       1  UNL1        0.0618
     21 H           6.0678   -0.3502    0.0000 H       1  UNL1        0.0618
@<TRIPOS>BOND
     1     1     7    2
     2     2     3    1
     3     2     4    1
     4     2    12    1
     5     2    13    1
     6     3     5    1
     7     3    14    1
     8     3    15    1
     9     4     7    1
    10     4    16    1
    11     4    17    1
    12     5     6   ar
    13     5     8   ar
    14     6     7    1
    15     6     9   ar
    16     8    10   ar
    17     8    18    1
    18     9    11   ar
    19     9    19    1
    20    10    11   ar
    21    10    20    1
    22    11    21    1
