@<TRIPOS>MOLECULE
IMPHY012902
 36 38 0 0 0
SMALL
GASTEIGER

@<TRIPOS>ATOM
      1 O           6.3981   -1.1633    0.0000 O.2     1  UNL1       -0.4543
      2 O           9.9282    0.8608    0.0000 O.3     1  UNL1       -0.4885
      3 O           9.9282   -1.1875    0.0000 O.3     1  UNL1       -0.4912
      4 O           8.1465    1.8713    0.0000 O.3     1  UNL1       -0.5027
      5 O           6.3981    1.8367    0.0000 O.2     1  UNL1       -0.2863
      6 O           2.8680    0.8608    0.0000 O.3     1  UNL1       -0.4951
      7 C           7.2641    0.3367    0.0000 C.ar    1  UNL1        0.1097
      8 C           7.2641   -0.6633    0.0000 C.ar    1  UNL1        0.1465
      9 C           5.5320    0.3367    0.0000 C.ar    1  UNL1        0.0681
     10 C           6.3981    0.8367    0.0000 C.ar    1  UNL1        0.2039
     11 C           5.5320   -0.6633    0.0000 C.ar    1  UNL1        0.1395
     12 C           8.1580    0.8713    0.0000 C.ar    1  UNL1        0.1768
     13 C           8.1580   -1.1980    0.0000 C.ar    1  UNL1        0.0270
     14 C           9.0641    0.3575    0.0000 C.ar    1  UNL1        0.2043
     15 C           9.0641   -0.6841    0.0000 C.ar    1  UNL1        0.1687
     16 C           4.6381    0.8713    0.0000 C.ar    1  UNL1       -0.0056
     17 C           4.6381   -1.1980    0.0000 C.ar    1  UNL1       -0.0152
     18 C           3.7320    0.3575    0.0000 C.ar    1  UNL1        0.1210
     19 C           3.7320   -0.6841    0.0000 C.ar    1  UNL1       -0.0164
     20 C          10.7961    0.3642    0.0000 C.3     1  UNL1        0.0791
     21 C           9.9243   -2.1875    0.0000 C.3     1  UNL1        0.0790
     22 C           2.0000    0.3642    0.0000 C.3     1  UNL1        0.0788
     23 H           8.1509   -1.8179    0.0000 H       1  UNL1        0.0692
     24 H           4.6453    1.4913    0.0000 H       1  UNL1        0.0662
     25 H           4.6453   -1.8179    0.0000 H       1  UNL1        0.0656
     26 H           3.1963   -0.9962    0.0000 H       1  UNL1        0.0655
     27 H           8.6798    2.1875    0.0000 H       1  UNL1        0.2923
     28 H          10.4882   -0.1740    0.0000 H       1  UNL1        0.0660
     29 H          11.3343    0.0562    0.0000 H       1  UNL1        0.0660
     30 H          11.1041    0.9023    0.0000 H       1  UNL1        0.0660
     31 H           9.3044   -2.1851    0.0000 H       1  UNL1        0.0660
     32 H           9.9220   -2.8075    0.0000 H       1  UNL1        0.0660
     33 H          10.5443   -2.1898    0.0000 H       1  UNL1        0.0660
     34 H           1.6921    0.9023    0.0000 H       1  UNL1        0.0660
     35 H           1.4619    0.0562    0.0000 H       1  UNL1        0.0660
     36 H           2.3079   -0.1740    0.0000 H       1  UNL1        0.0660
@<TRIPOS>BOND
     1     1     8   ar
     2     1    11   ar
     3     2    14    1
     4     2    20    1
     5     3    15    1
     6     3    21    1
     7     4    12    1
     8     4    27    1
     9     5    10    2
    10     6    18    1
    11     6    22    1
    12     7     8   ar
    13     7    10   ar
    14     7    12   ar
    15     8    13   ar
    16     9    10   ar
    17     9    11   ar
    18     9    16   ar
    19    11    17   ar
    20    12    14   ar
    21    13    15   ar
    22    13    23    1
    23    14    15   ar
    24    16    18   ar
    25    16    24    1
    26    17    19   ar
    27    17    25    1
    28    18    19   ar
    29    19    26    1
    30    20    28    1
    31    20    29    1
    32    20    30    1
    33    21    31    1
    34    21    32    1
    35    21    33    1
    36    22    34    1
    37    22    35    1
    38    22    36    1
