@<TRIPOS>MOLECULE
IMPHY004057
 16 16 0 0 0
SMALL
GASTEIGER

@<TRIPOS>ATOM
      1 O           2.8660   -0.7500    0.0000 O.2     1  UNL1       -0.2663
      2 N           4.5981   -0.7500    0.0000 N.ar    1  UNL1       -0.3172
      3 N           2.0000    1.7500    0.0000 N.1     1  UNL1       -0.1907
      4 C           3.7320   -0.2500    0.0000 C.ar    1  UNL1        0.2685
      5 C           5.4641   -0.2500    0.0000 C.ar    1  UNL1        0.0077
      6 C           3.7320    0.7500    0.0000 C.ar    1  UNL1        0.1161
      7 C           4.5981   -1.7500    0.0000 C.3     1  UNL1        0.0147
      8 C           5.4641    0.7500    0.0000 C.ar    1  UNL1       -0.0441
      9 C           4.5981    1.2500    0.0000 C.ar    1  UNL1       -0.0377
     10 C           2.8660    1.2500    0.0000 C.1     1  UNL1        0.1046
     11 H           6.0010   -0.5600    0.0000 H       1  UNL1        0.0810
     12 H           3.9781   -1.7500    0.0000 H       1  UNL1        0.0457
     13 H           4.5981   -2.3700    0.0000 H       1  UNL1        0.0457
     14 H           5.2181   -1.7500    0.0000 H       1  UNL1        0.0457
     15 H           6.0010    1.0600    0.0000 H       1  UNL1        0.0632
     16 H           4.5981    1.8700    0.0000 H       1  UNL1        0.0632
@<TRIPOS>BOND
     1     1     4    2
     2     2     4   ar
     3     2     5   ar
     4     2     7    1
     5     3    10    3
     6     4     6   ar
     7     5     8   ar
     8     5    11    1
     9     6     9   ar
    10     6    10    1
    11     7    12    1
    12     7    13    1
    13     7    14    1
    14     8     9   ar
    15     8    15    1
    16     9    16    1
