@<TRIPOS>MOLECULE
IMPHY007439
 66 69 0 0 0
SMALL
GASTEIGER

@<TRIPOS>ATOM
      1 O          10.3604    3.2695    0.0000 O.3     1  UNL1       -0.4806
      2 O          10.7175    1.5747    0.0000 O.2     1  UNL1       -0.2510
      3 C           6.5251   -0.2992    0.0000 C.3     1  UNL1       -0.0259
      4 C           6.5251   -1.2992    0.0000 C.3     1  UNL1       -0.0323
      5 C           5.6591   -1.7992    0.0000 C.3     1  UNL1       -0.0344
      6 C           4.7931   -1.2992    0.0000 C.3     1  UNL1       -0.0323
      7 C           3.8831   -1.8060    0.0000 C.3     1  UNL1       -0.0261
      8 C           7.4714    0.0055    0.0000 C.3     1  UNL1       -0.0328
      9 C           5.6591    0.2008    0.0000 C.3     1  UNL1       -0.0468
     10 C           4.7931   -0.2992    0.0000 C.3     1  UNL1       -0.0489
     11 C           3.8751   -2.8476    0.0000 C.3     1  UNL1       -0.0354
     12 C           7.4714   -1.6039    0.0000 C.3     1  UNL1       -0.0492
     13 C           5.6752   -2.8407    0.0000 C.3     1  UNL1       -0.0494
     14 C           8.0550   -0.7992    0.0000 C.3     1  UNL1       -0.0492
     15 C           4.7771   -3.3685    0.0000 C.3     1  UNL1       -0.0494
     16 C           2.9562   -1.2420    0.0000 C.3     1  UNL1       -0.0471
     17 C           6.5251    0.7008    0.0000 C.3     1  UNL1       -0.0590
     18 C           7.7820    0.9560    0.0000 C.3     1  UNL1       -0.0400
     19 C           2.9396   -3.3974    0.0000 C.3     1  UNL1       -0.0497
     20 C           3.8908   -0.8061    0.0000 C.3     1  UNL1       -0.0590
     21 C           2.0084   -1.7699    0.0000 C.3     1  UNL1       -0.0525
     22 C           2.0000   -2.8549    0.0000 C.3     1  UNL1       -0.0528
     23 C           8.7605    1.1623    0.0000 C.3     1  UNL1       -0.0401
     24 C           7.1142    1.7004    0.0000 C.3     1  UNL1       -0.0621
     25 C           9.0712    2.1128    0.0000 C.3     1  UNL1        0.0450
     26 C          10.0497    2.3190    0.0000 C.2     1  UNL1        0.3047
     27 H           6.6151   -2.1444    0.0000 H       1  UNL1        0.0309
     28 H           6.3985   -2.2185    0.0000 H       1  UNL1        0.0306
     29 H           5.5292   -0.8742    0.0000 H       1  UNL1        0.0309
     30 H           8.3111    0.1374    0.0000 H       1  UNL1        0.0309
     31 H           6.0576    0.6757    0.0000 H       1  UNL1        0.0271
     32 H           5.2606    0.6757    0.0000 H       1  UNL1        0.0271
     33 H           4.5810    0.2834    0.0000 H       1  UNL1        0.0268
     34 H           4.1825   -0.4069    0.0000 H       1  UNL1        0.0268
     35 H           3.8783   -3.6976    0.0000 H       1  UNL1        0.0306
     36 H           7.2203   -2.1708    0.0000 H       1  UNL1        0.0268
     37 H           8.0087   -1.9132    0.0000 H       1  UNL1        0.0268
     38 H           5.8932   -3.4211    0.0000 H       1  UNL1        0.0268
     39 H           6.2843   -2.7252    0.0000 H       1  UNL1        0.0268
     40 H           8.5158   -1.2139    0.0000 H       1  UNL1        0.0268
     41 H           8.5158   -0.3845    0.0000 H       1  UNL1        0.0268
     42 H           4.3798   -3.8444    0.0000 H       1  UNL1        0.0268
     43 H           5.1781   -3.8414    0.0000 H       1  UNL1        0.0268
     44 H           3.3645   -0.7753    0.0000 H       1  UNL1        0.0271
     45 H           2.5663   -0.7599    0.0000 H       1  UNL1        0.0271
     46 H           7.1451    0.7008    0.0000 H       1  UNL1        0.0235
     47 H           6.5251    1.3208    0.0000 H       1  UNL1        0.0235
     48 H           5.9051    0.7008    0.0000 H       1  UNL1        0.0235
     49 H           7.9746    1.5454    0.0000 H       1  UNL1        0.0301
     50 H           2.5423   -3.8734    0.0000 H       1  UNL1        0.0268
     51 H           3.3406   -3.8703    0.0000 H       1  UNL1        0.0268
     52 H           4.5108   -0.8109    0.0000 H       1  UNL1        0.0235
     53 H           3.8956   -0.1861    0.0000 H       1  UNL1        0.0235
     54 H           3.2708   -0.8013    0.0000 H       1  UNL1        0.0235
     55 H           1.8038   -1.1846    0.0000 H       1  UNL1        0.0265
     56 H           1.3967   -1.8713    0.0000 H       1  UNL1        0.0265
     57 H           1.3900   -2.7441    0.0000 H       1  UNL1        0.0265
     58 H           1.7864   -3.4369    0.0000 H       1  UNL1        0.0265
     59 H           8.7811    0.5426    0.0000 H       1  UNL1        0.0273
     60 H           9.3743    1.0749    0.0000 H       1  UNL1        0.0273
     61 H           7.5756    2.1144    0.0000 H       1  UNL1        0.0233
     62 H           6.7001    2.1618    0.0000 H       1  UNL1        0.0233
     63 H           6.6527    1.2863    0.0000 H       1  UNL1        0.0233
     64 H           9.0506    2.7324    0.0000 H       1  UNL1        0.0378
     65 H           8.4574    2.2001    0.0000 H       1  UNL1        0.0378
     66 H          10.9670    3.3974    0.0000 H       1  UNL1        0.2951
@<TRIPOS>BOND
     1     1    26    1
     2     1    66    1
     3     2    26    2
     4     3     4    1
     5     3     8    1
     6     3     9    1
     7     3    17    1
     8     4     5    1
     9     4    12    1
    10     4    27    1
    11     5     6    1
    12     5    13    1
    13     5    28    1
    14     6     7    1
    15     6    10    1
    16     6    29    1
    17     7    11    1
    18     7    16    1
    19     7    20    1
    20     8    14    1
    21     8    18    1
    22     8    30    1
    23     9    10    1
    24     9    31    1
    25     9    32    1
    26    10    33    1
    27    10    34    1
    28    11    15    1
    29    11    19    1
    30    11    35    1
    31    12    14    1
    32    12    36    1
    33    12    37    1
    34    13    15    1
    35    13    38    1
    36    13    39    1
    37    14    40    1
    38    14    41    1
    39    15    42    1
    40    15    43    1
    41    16    21    1
    42    16    44    1
    43    16    45    1
    44    17    46    1
    45    17    47    1
    46    17    48    1
    47    18    23    1
    48    18    24    1
    49    18    49    1
    50    19    22    1
    51    19    50    1
    52    19    51    1
    53    20    52    1
    54    20    53    1
    55    20    54    1
    56    21    22    1
    57    21    55    1
    58    21    56    1
    59    22    57    1
    60    22    58    1
    61    23    25    1
    62    23    59    1
    63    23    60    1
    64    24    61    1
    65    24    62    1
    66    24    63    1
    67    25    26    1
    68    25    64    1
    69    25    65    1
