@<TRIPOS>MOLECULE
IMPHY006711
 54 53 0 0 0
SMALL
GASTEIGER

@<TRIPOS>ATOM
      1 O           7.1962    1.8450    0.0000 O.3     1  UNL1       -0.3915
      2 C           6.3301    0.3450    0.0000 C.3     1  UNL1       -0.0150
      3 C           7.1962    0.8450    0.0000 C.3     1  UNL1        0.0581
      4 C           5.4641    0.8450    0.0000 C.3     1  UNL1       -0.0479
      5 C           6.3301   -0.6550    0.0000 C.3     1  UNL1       -0.0481
      6 C           8.0622    0.3450    0.0000 C.3     1  UNL1       -0.0266
      7 C           4.5981    0.3450    0.0000 C.3     1  UNL1       -0.0527
      8 C           8.9282    0.8450    0.0000 C.3     1  UNL1       -0.0507
      9 C           5.4641   -1.1550    0.0000 C.3     1  UNL1       -0.0556
     10 C           9.7942    0.3450    0.0000 C.3     1  UNL1       -0.0530
     11 C           3.7320    0.8450    0.0000 C.3     1  UNL1       -0.0533
     12 C          10.6603    0.8450    0.0000 C.3     1  UNL1       -0.0531
     13 C           2.8660    0.3450    0.0000 C.3     1  UNL1       -0.0559
     14 C           5.4641   -2.1550    0.0000 C.3     1  UNL1       -0.0653
     15 C          11.5263    0.3450    0.0000 C.3     1  UNL1       -0.0533
     16 C          12.3923    0.8450    0.0000 C.3     1  UNL1       -0.0559
     17 C           2.0000    0.8450    0.0000 C.3     1  UNL1       -0.0653
     18 C          13.2583    0.3450    0.0000 C.3     1  UNL1       -0.0653
     19 H           6.8671    0.0350    0.0000 H       1  UNL1        0.0326
     20 H           6.6592    1.1550    0.0000 H       1  UNL1        0.0596
     21 H           5.8626    1.3200    0.0000 H       1  UNL1        0.0269
     22 H           5.0656    1.3200    0.0000 H       1  UNL1        0.0269
     23 H           6.5422   -1.2376    0.0000 H       1  UNL1        0.0269
     24 H           6.9407   -0.5473    0.0000 H       1  UNL1        0.0269
     25 H           7.6636   -0.1299    0.0000 H       1  UNL1        0.0290
     26 H           8.4607   -0.1299    0.0000 H       1  UNL1        0.0290
     27 H           4.1996   -0.1299    0.0000 H       1  UNL1        0.0265
     28 H           4.9966   -0.1299    0.0000 H       1  UNL1        0.0265
     29 H           9.3267    1.3200    0.0000 H       1  UNL1        0.0266
     30 H           8.5297    1.3200    0.0000 H       1  UNL1        0.0266
     31 H           5.2520   -0.5724    0.0000 H       1  UNL1        0.0263
     32 H           4.8535   -1.2627    0.0000 H       1  UNL1        0.0263
     33 H           9.3957   -0.1299    0.0000 H       1  UNL1        0.0265
     34 H          10.1928   -0.1299    0.0000 H       1  UNL1        0.0265
     35 H           4.1306    1.3200    0.0000 H       1  UNL1        0.0265
     36 H           3.3335    1.3200    0.0000 H       1  UNL1        0.0265
     37 H          11.0588    1.3200    0.0000 H       1  UNL1        0.0265
     38 H          10.2617    1.3200    0.0000 H       1  UNL1        0.0265
     39 H           7.7331    2.1550    0.0000 H       1  UNL1        0.2098
     40 H           2.4675   -0.1299    0.0000 H       1  UNL1        0.0263
     41 H           3.2646   -0.1299    0.0000 H       1  UNL1        0.0263
     42 H           4.8441   -2.1550    0.0000 H       1  UNL1        0.0230
     43 H           5.4641   -2.7750    0.0000 H       1  UNL1        0.0230
     44 H           6.0841   -2.1550    0.0000 H       1  UNL1        0.0230
     45 H          11.1278   -0.1299    0.0000 H       1  UNL1        0.0265
     46 H          11.9248   -0.1299    0.0000 H       1  UNL1        0.0265
     47 H          12.7908    1.3200    0.0000 H       1  UNL1        0.0263
     48 H          11.9938    1.3200    0.0000 H       1  UNL1        0.0263
     49 H           2.3100    1.3819    0.0000 H       1  UNL1        0.0230
     50 H           1.4631    1.1550    0.0000 H       1  UNL1        0.0230
     51 H           1.6900    0.3081    0.0000 H       1  UNL1        0.0230
     52 H          12.9483   -0.1919    0.0000 H       1  UNL1        0.0230
     53 H          13.7953    0.0350    0.0000 H       1  UNL1        0.0230
     54 H          13.5683    0.8819    0.0000 H       1  UNL1        0.0230
@<TRIPOS>BOND
     1     1     3    1
     2     1    39    1
     3     2     3    1
     4     2     4    1
     5     2     5    1
     6     2    19    1
     7     3     6    1
     8     3    20    1
     9     4     7    1
    10     4    21    1
    11     4    22    1
    12     5     9    1
    13     5    23    1
    14     5    24    1
    15     6     8    1
    16     6    25    1
    17     6    26    1
    18     7    11    1
    19     7    27    1
    20     7    28    1
    21     8    10    1
    22     8    29    1
    23     8    30    1
    24     9    14    1
    25     9    31    1
    26     9    32    1
    27    10    12    1
    28    10    33    1
    29    10    34    1
    30    11    13    1
    31    11    35    1
    32    11    36    1
    33    12    15    1
    34    12    37    1
    35    12    38    1
    36    13    17    1
    37    13    40    1
    38    13    41    1
    39    14    42    1
    40    14    43    1
    41    14    44    1
    42    15    16    1
    43    15    45    1
    44    15    46    1
    45    16    18    1
    46    16    47    1
    47    16    48    1
    48    17    49    1
    49    17    50    1
    50    17    51    1
    51    18    52    1
    52    18    53    1
    53    18    54    1
