@<TRIPOS>MOLECULE
IMPHY008871
 47 50 0 0 0
SMALL
GASTEIGER

@<TRIPOS>ATOM
      1 O           8.0944    0.0064    0.0000 O.3     1  UNL1       -0.4851
      2 O           9.0283    1.3252    0.0000 O.3     1  UNL1       -0.3829
      3 O           9.6517    2.6961    0.0000 O.3     1  UNL1       -0.3800
      4 O           6.4144   -3.2498    0.0000 O.3     1  UNL1       -0.5059
      5 O           4.6660   -3.2152    0.0000 O.2     1  UNL1       -0.2864
      6 N           4.6660   -0.2152    0.0000 N.ar    1  UNL1       -0.3423
      7 C           7.6651    0.9487    0.0000 C.3     1  UNL1        0.1347
      8 C           8.1584    1.8185    0.0000 C.3     1  UNL1        0.1232
      9 C           6.6361    0.8334    0.0000 C.3     1  UNL1        0.0178
     10 C           6.4260   -0.1805    0.0000 C.ar    1  UNL1        0.0222
     11 C           7.3321   -0.6944    0.0000 C.ar    1  UNL1        0.1298
     12 C           5.5321   -0.7152    0.0000 C.ar    1  UNL1        0.0633
     13 C           8.6518    2.6884    0.0000 C.3     1  UNL1        0.0793
     14 C           7.2886    2.3119    0.0000 C.3     1  UNL1       -0.0304
     15 C           5.5321   -1.7152    0.0000 C.ar    1  UNL1        0.0876
     16 C           7.3321   -1.7360    0.0000 C.ar    1  UNL1        0.0227
     17 C           6.4260   -2.2498    0.0000 C.ar    1  UNL1        0.1331
     18 C           3.8000   -0.7152    0.0000 C.ar    1  UNL1        0.0529
     19 C           4.6660   -2.2152    0.0000 C.ar    1  UNL1        0.2006
     20 C           3.8000   -1.7152    0.0000 C.ar    1  UNL1        0.0459
     21 C           4.6660    0.7848    0.0000 C.3     1  UNL1        0.0124
     22 C           2.9061   -0.1805    0.0000 C.ar    1  UNL1       -0.0375
     23 C           2.9061   -2.2498    0.0000 C.ar    1  UNL1       -0.0489
     24 C           2.0000   -0.6944    0.0000 C.ar    1  UNL1       -0.0598
     25 C           2.0000   -1.7360    0.0000 C.ar    1  UNL1       -0.0610
     26 C          10.1450    3.5660    0.0000 C.3     1  UNL1        0.0366
     27 H           8.2845    0.9213    0.0000 H       1  UNL1        0.0766
     28 H           6.6322    1.4534    0.0000 H       1  UNL1        0.0352
     29 H           6.0191    0.8947    0.0000 H       1  UNL1        0.0352
     30 H           8.7547    3.2998    0.0000 H       1  UNL1        0.0589
     31 H           8.0675    2.8960    0.0000 H       1  UNL1        0.0589
     32 H           7.5944    2.8512    0.0000 H       1  UNL1        0.0259
     33 H           6.7493    2.6177    0.0000 H       1  UNL1        0.0259
     34 H           6.9827    1.7725    0.0000 H       1  UNL1        0.0259
     35 H           7.8678   -2.0481    0.0000 H       1  UNL1        0.0691
     36 H           9.5628    1.6394    0.0000 H       1  UNL1        0.2104
     37 H           5.2860    0.7848    0.0000 H       1  UNL1        0.0456
     38 H           4.6660    1.4048    0.0000 H       1  UNL1        0.0456
     39 H           4.0460    0.7848    0.0000 H       1  UNL1        0.0456
     40 H           2.9132    0.4394    0.0000 H       1  UNL1        0.0638
     41 H           2.9132   -2.8698    0.0000 H       1  UNL1        0.0625
     42 H           6.9478   -3.5660    0.0000 H       1  UNL1        0.2922
     43 H           1.4643   -0.3823    0.0000 H       1  UNL1        0.0618
     44 H           1.4643   -2.0481    0.0000 H       1  UNL1        0.0618
     45 H          10.6843    3.2601    0.0000 H       1  UNL1        0.0524
     46 H          10.4509    4.1053    0.0000 H       1  UNL1        0.0524
     47 H           9.6057    3.8718    0.0000 H       1  UNL1        0.0524
@<TRIPOS>BOND
     1     1     7    1
     2     1    11    1
     3     2     8    1
     4     2    36    1
     5     3    13    1
     6     3    26    1
     7     4    17    1
     8     4    42    1
     9     5    19    2
    10     6    12   ar
    11     6    18   ar
    12     6    21    1
    13     7     8    1
    14     7     9    1
    15     7    27    1
    16     8    13    1
    17     8    14    1
    18     9    10    1
    19     9    28    1
    20     9    29    1
    21    10    11   ar
    22    10    12   ar
    23    11    16   ar
    24    12    15   ar
    25    13    30    1
    26    13    31    1
    27    14    32    1
    28    14    33    1
    29    14    34    1
    30    15    17   ar
    31    15    19   ar
    32    16    17   ar
    33    16    35    1
    34    18    20   ar
    35    18    22   ar
    36    19    20   ar
    37    20    23   ar
    38    21    37    1
    39    21    38    1
    40    21    39    1
    41    22    24   ar
    42    22    40    1
    43    23    25   ar
    44    23    41    1
    45    24    25   ar
    46    24    43    1
    47    25    44    1
    48    26    45    1
    49    26    46    1
    50    26    47    1
