@<TRIPOS>MOLECULE
IMPHY013431
 56 60 0 0 0
SMALL
GASTEIGER

@<TRIPOS>ATOM
      1 O           5.1350   -1.9080    0.0000 O.3     1  UNL1       -0.3313
      2 O           6.8671   -1.9080    0.0000 O.3     1  UNL1       -0.4607
      3 O           5.1350   -4.9080    0.0000 O.3     1  UNL1       -0.3864
      4 O           3.4030   -3.9080    0.0000 O.3     1  UNL1       -0.3865
      5 O           6.8671   -3.9080    0.0000 O.3     1  UNL1       -0.3829
      6 O           2.5369   -2.4080    0.0000 O.3     1  UNL1       -0.3924
      7 O           8.6230    1.1545    0.0000 O.2     1  UNL1       -0.4508
      8 O           7.7666    3.6578    0.0000 O.3     1  UNL1       -0.4883
      9 O          10.5796    5.1188    0.0000 O.3     1  UNL1       -0.4526
     10 O          11.9703    4.3087    0.0000 O.3     1  UNL1       -0.4526
     11 O           6.0308    2.6645    0.0000 O.2     1  UNL1       -0.2831
     12 C           5.1350   -3.9080    0.0000 C.3     1  UNL1        0.1152
     13 C           4.2690   -3.4080    0.0000 C.3     1  UNL1        0.1120
     14 C           6.0010   -3.4080    0.0000 C.3     1  UNL1        0.1454
     15 C           4.2690   -2.4080    0.0000 C.3     1  UNL1        0.1140
     16 C           6.0010   -2.4080    0.0000 C.3     1  UNL1        0.2308
     17 C           3.4030   -1.9080    0.0000 C.3     1  UNL1        0.0731
     18 C           6.8671   -0.9080    0.0000 C.ar    1  UNL1        0.1275
     19 C           7.7671   -0.3837    0.0000 C.ar    1  UNL1        0.0232
     20 C           5.9670   -0.3837    0.0000 C.ar    1  UNL1       -0.0189
     21 C           7.7551    0.6578    0.0000 C.ar    1  UNL1        0.1430
     22 C           6.8910    1.1612    0.0000 C.ar    1  UNL1        0.0679
     23 C           5.9790    0.6578    0.0000 C.ar    1  UNL1       -0.0438
     24 C           8.6269    2.1545    0.0000 C.ar    1  UNL1        0.1809
     25 C           6.8948    2.1612    0.0000 C.ar    1  UNL1        0.2345
     26 C           7.7628    2.6578    0.0000 C.ar    1  UNL1        0.2105
     27 C           9.4948    2.6511    0.0000 C.ar    1  UNL1        0.0247
     28 C           9.4987    3.6511    0.0000 C.ar    1  UNL1       -0.0054
     29 C          10.3666    4.1478    0.0000 C.ar    1  UNL1        0.1669
     30 C          10.3589    2.1478    0.0000 C.ar    1  UNL1       -0.0473
     31 C          11.2307    3.6444    0.0000 C.ar    1  UNL1        0.1663
     32 C          11.2269    2.6445    0.0000 C.ar    1  UNL1       -0.0155
     33 C          11.5687    5.2180    0.0000 C.3     1  UNL1        0.2332
     34 C           6.9026    4.1611    0.0000 C.3     1  UNL1        0.0791
     35 H           4.5981   -4.2180    0.0000 H       1  UNL1        0.0648
     36 H           4.2690   -4.0280    0.0000 H       1  UNL1        0.0647
     37 H           6.0010   -4.0280    0.0000 H       1  UNL1        0.0683
     38 H           4.2690   -1.7880    0.0000 H       1  UNL1        0.0647
     39 H           6.0010   -1.7880    0.0000 H       1  UNL1        0.1084
     40 H           3.8015   -1.4331    0.0000 H       1  UNL1        0.0584
     41 H           3.0044   -1.4331    0.0000 H       1  UNL1        0.0584
     42 H           4.5981   -5.2180    0.0000 H       1  UNL1        0.2100
     43 H           3.4030   -4.5280    0.0000 H       1  UNL1        0.2100
     44 H           6.8671   -4.5280    0.0000 H       1  UNL1        0.2102
     45 H           2.0000   -2.0980    0.0000 H       1  UNL1        0.2095
     46 H           8.3064   -0.6896    0.0000 H       1  UNL1        0.0691
     47 H           5.4277   -0.6896    0.0000 H       1  UNL1        0.0654
     48 H           5.4470    0.9761    0.0000 H       1  UNL1        0.0627
     49 H           8.9630    3.9632    0.0000 H       1  UNL1        0.0662
     50 H          10.3565    1.5278    0.0000 H       1  UNL1        0.0626
     51 H          11.7626    2.3324    0.0000 H       1  UNL1        0.0655
     52 H          12.1590    5.4075    0.0000 H       1  UNL1        0.1166
     53 H          11.4423    5.8250    0.0000 H       1  UNL1        0.1166
     54 H           7.2146    4.6969    0.0000 H       1  UNL1        0.0660
     55 H           6.3668    4.4732    0.0000 H       1  UNL1        0.0660
     56 H           6.5905    3.6254    0.0000 H       1  UNL1        0.0660
@<TRIPOS>BOND
     1     1    15    1
     2     1    16    1
     3    16     2    1
     4     2    18    1
     5    12     3    1
     6     3    42    1
     7    13     4    1
     8     4    43    1
     9     5    14    1
    10     5    44    1
    11     6    17    1
    12     6    45    1
    13     7    21   ar
    14     7    24   ar
    15     8    26    1
    16     8    34    1
    17     9    29    1
    18     9    33    1
    19    10    31    1
    20    10    33    1
    21    11    25    2
    22    12    13    1
    23    12    14    1
    24    12    35    1
    25    13    15    1
    26    13    36    1
    27    14    16    1
    28    14    37    1
    29    15    17    1
    30    15    38    1
    31    16    39    1
    32    17    40    1
    33    17    41    1
    34    18    19   ar
    35    18    20   ar
    36    19    21   ar
    37    19    46    1
    38    20    23   ar
    39    20    47    1
    40    21    22   ar
    41    22    23   ar
    42    22    25   ar
    43    23    48    1
    44    24    26   ar
    45    24    27    1
    46    25    26   ar
    47    27    28   ar
    48    27    30   ar
    49    28    29   ar
    50    28    49    1
    51    29    31   ar
    52    30    32   ar
    53    30    50    1
    54    31    32   ar
    55    32    51    1
    56    33    52    1
    57    33    53    1
    58    34    54    1
    59    34    55    1
    60    34    56    1
