@<TRIPOS>MOLECULE
IMPHY017303
 35 35 0 0 0
SMALL
GASTEIGER

@<TRIPOS>ATOM
      1 O           8.5991   -1.6900    0.0000 O.3     1  UNL1       -0.3877
      2 O           2.5369    0.8100    0.0000 O.3     1  UNL1       -0.3796
      3 C           6.8671    0.3100    0.0000 C.3     1  UNL1       -0.0149
      4 C           6.0010   -0.1900    0.0000 C.3     1  UNL1        0.0467
      5 C           7.7331   -0.1900    0.0000 C.3     1  UNL1       -0.0167
      6 C           7.7331   -1.1900    0.0000 C.3     1  UNL1        0.0742
      7 C           6.0010   -1.1900    0.0000 C.2     1  UNL1       -0.0589
      8 C           7.3671    1.1760    0.0000 C.3     1  UNL1       -0.0583
      9 C           6.3671    1.1760    0.0000 C.3     1  UNL1       -0.0583
     10 C           6.8671   -1.6900    0.0000 C.2     1  UNL1       -0.0557
     11 C           5.1350   -1.6900    0.0000 C.3     1  UNL1       -0.0425
     12 C           5.1350    0.3100    0.0000 C.1     1  UNL1       -0.0914
     13 C           4.2690    0.8100    0.0000 C.1     1  UNL1       -0.0706
     14 C           3.4030    1.3100    0.0000 C.3     1  UNL1        0.1127
     15 C           3.4030    2.3100    0.0000 C.3     1  UNL1       -0.0276
     16 H           5.4641   -0.5000    0.0000 H       1  UNL1        0.0484
     17 H           8.3437   -0.2977    0.0000 H       1  UNL1        0.0299
     18 H           7.9451    0.3926    0.0000 H       1  UNL1        0.0299
     19 H           7.7331   -1.8100    0.0000 H       1  UNL1        0.0638
     20 H           7.9040    0.8660    0.0000 H       1  UNL1        0.0235
     21 H           7.6771    1.7130    0.0000 H       1  UNL1        0.0235
     22 H           6.8301    1.4860    0.0000 H       1  UNL1        0.0235
     23 H           6.9040    1.4860    0.0000 H       1  UNL1        0.0235
     24 H           6.0571    1.7130    0.0000 H       1  UNL1        0.0235
     25 H           5.8301    0.8660    0.0000 H       1  UNL1        0.0235
     26 H           6.8671   -2.3100    0.0000 H       1  UNL1        0.0597
     27 H           4.8250   -1.1531    0.0000 H       1  UNL1        0.0275
     28 H           4.5981   -2.0000    0.0000 H       1  UNL1        0.0275
     29 H           5.4450   -2.2269    0.0000 H       1  UNL1        0.0275
     30 H           8.5991   -2.3100    0.0000 H       1  UNL1        0.2102
     31 H           3.4030    0.6900    0.0000 H       1  UNL1        0.0728
     32 H           4.0230    2.3100    0.0000 H       1  UNL1        0.0264
     33 H           3.4030    2.9300    0.0000 H       1  UNL1        0.0264
     34 H           2.7830    2.3100    0.0000 H       1  UNL1        0.0264
     35 H           2.0000    1.1200    0.0000 H       1  UNL1        0.2111
@<TRIPOS>BOND
     1     1     6    1
     2     1    30    1
     3     2    14    1
     4     2    35    1
     5     3     4    1
     6     3     5    1
     7     3     8    1
     8     3     9    1
     9     4     7    1
    10     4    12    1
    11     4    16    1
    12     5     6    1
    13     5    17    1
    14     5    18    1
    15     6    10    1
    16     6    19    1
    17     7    10    2
    18     7    11    1
    19     8    20    1
    20     8    21    1
    21     8    22    1
    22     9    23    1
    23     9    24    1
    24     9    25    1
    25    10    26    1
    26    11    27    1
    27    11    28    1
    28    11    29    1
    29    12    13    3
    30    13    14    1
    31    14    15    1
    32    14    31    1
    33    15    32    1
    34    15    33    1
    35    15    34    1
