@<TRIPOS>MOLECULE
IMPHY003736
 49 51 0 0 0
SMALL
GASTEIGER

@<TRIPOS>ATOM
      1 O           6.8671   -0.9050    0.0000 O.3     1  UNL1       -0.3093
      2 O           6.0010    0.5950    0.0000 O.2     1  UNL1       -0.4699
      3 O           5.1350   -0.9050    0.0000 O.3     1  UNL1       -0.3404
      4 O           8.9900    2.8502    0.0000 O.3     1  UNL1       -0.3871
      5 O           6.8671   -2.9050    0.0000 O.3     1  UNL1       -0.3841
      6 O           5.1350   -3.9050    0.0000 O.3     1  UNL1       -0.3864
      7 O           3.4030   -2.9050    0.0000 O.3     1  UNL1       -0.3865
      8 O           9.9685   -0.8665    0.0000 O.3     1  UNL1       -0.3907
      9 O           2.5369   -1.4050    0.0000 O.3     1  UNL1       -0.3924
     10 O           6.0010    3.5950    0.0000 O.3     1  UNL1       -0.4773
     11 O           7.7331    3.5950    0.0000 O.2     1  UNL1       -0.2454
     12 C           7.7331    0.5950    0.0000 C.3     1  UNL1        0.0546
     13 C           7.7331    1.5950    0.0000 C.3     1  UNL1        0.0357
     14 C           6.8671    0.0950    0.0000 C.3     1  UNL1        0.2106
     15 C           8.6793    1.8997    0.0000 C.3     1  UNL1        0.0815
     16 C           8.6793    0.2903    0.0000 C.2     1  UNL1       -0.0363
     17 C           9.2629    1.0950    0.0000 C.2     1  UNL1       -0.0534
     18 C           6.0010   -1.4050    0.0000 C.3     1  UNL1        0.1918
     19 C           6.8671    2.0950    0.0000 C.2     1  UNL1        0.0772
     20 C           6.0010   -2.4050    0.0000 C.3     1  UNL1        0.1342
     21 C           5.1350   -2.9050    0.0000 C.3     1  UNL1        0.1141
     22 C           4.2690   -2.4050    0.0000 C.3     1  UNL1        0.1119
     23 C           4.2690   -1.4050    0.0000 C.3     1  UNL1        0.1130
     24 C           8.9900   -0.6603    0.0000 C.3     1  UNL1        0.0659
     25 C           6.0010    1.5950    0.0000 C.2     1  UNL1        0.0982
     26 C           3.4030   -0.9050    0.0000 C.3     1  UNL1        0.0730
     27 C           6.8671    3.0950    0.0000 C.2     1  UNL1        0.3361
     28 H           7.8230   -0.2502    0.0000 H       1  UNL1        0.0414
     29 H           7.8230    2.4402    0.0000 H       1  UNL1        0.0388
     30 H           7.4040   -0.2150    0.0000 H       1  UNL1        0.1062
     31 H           8.2418    2.3391    0.0000 H       1  UNL1        0.0644
     32 H           6.0010   -0.7850    0.0000 H       1  UNL1        0.0939
     33 H           9.8829    1.0950    0.0000 H       1  UNL1        0.0598
     34 H           6.0010   -3.0250    0.0000 H       1  UNL1        0.0671
     35 H           4.5981   -3.2150    0.0000 H       1  UNL1        0.0648
     36 H           4.2690   -3.0250    0.0000 H       1  UNL1        0.0647
     37 H           4.2690   -0.7850    0.0000 H       1  UNL1        0.0647
     38 H           8.3762   -0.7476    0.0000 H       1  UNL1        0.0604
     39 H           8.9694   -1.2799    0.0000 H       1  UNL1        0.0604
     40 H           5.4641    1.9050    0.0000 H       1  UNL1        0.1029
     41 H           3.8015   -0.4301    0.0000 H       1  UNL1        0.0584
     42 H           3.0044   -0.4301    0.0000 H       1  UNL1        0.0584
     43 H           9.5966    2.9781    0.0000 H       1  UNL1        0.2102
     44 H           6.8671   -3.5250    0.0000 H       1  UNL1        0.2101
     45 H           4.5981   -4.2150    0.0000 H       1  UNL1        0.2100
     46 H           3.4030   -3.5250    0.0000 H       1  UNL1        0.2100
     47 H          10.1611   -1.4558    0.0000 H       1  UNL1        0.2098
     48 H           2.0000   -1.0950    0.0000 H       1  UNL1        0.2095
     49 H           6.0010    4.2150    0.0000 H       1  UNL1        0.2954
@<TRIPOS>BOND
     1    14     1    1
     2    18     1    1
     3     2    14    1
     4     2    25    1
     5     3    18    1
     6     3    23    1
     7    15     4    1
     8     4    43    1
     9    20     5    1
    10     5    44    1
    11    21     6    1
    12     6    45    1
    13    22     7    1
    14     7    46    1
    15     8    24    1
    16     8    47    1
    17     9    26    1
    18     9    48    1
    19    10    27    1
    20    10    49    1
    21    11    27    2
    22    12    13    1
    23    12    14    1
    24    12    16    1
    25    12    28    1
    26    13    15    1
    27    13    19    1
    28    13    29    1
    29    14    30    1
    30    15    17    1
    31    15    31    1
    32    16    17    2
    33    16    24    1
    34    17    33    1
    35    18    20    1
    36    18    32    1
    37    19    25    2
    38    19    27    1
    39    20    21    1
    40    20    34    1
    41    21    22    1
    42    21    35    1
    43    22    23    1
    44    22    36    1
    45    23    26    1
    46    23    37    1
    47    24    38    1
    48    24    39    1
    49    25    40    1
    50    26    41    1
    51    26    42    1
