@<TRIPOS>MOLECULE
IMPHY015837
 22 22 0 0 0
SMALL
GASTEIGER

@<TRIPOS>ATOM
      1 O           2.8660   -0.7500    0.0000 O.3     1  UNL1       -0.4644
      2 O           3.7320    0.7500    0.0000 O.2     1  UNL1       -0.2449
      3 O           6.3301    2.2500    0.0000 O.2     1  UNL1       -0.2792
      4 N           5.4641    0.7500    0.0000 N.am    1  UNL1       -0.2874
      5 C           4.5981   -0.7500    0.0000 C.ar    1  UNL1        0.0801
      6 C           5.4641   -0.2500    0.0000 C.ar    1  UNL1        0.0472
      7 C           4.5981   -1.7500    0.0000 C.ar    1  UNL1       -0.0460
      8 C           6.3301   -0.7500    0.0000 C.ar    1  UNL1       -0.0397
      9 C           5.4641   -2.2500    0.0000 C.ar    1  UNL1       -0.0609
     10 C           6.3301   -1.7500    0.0000 C.ar    1  UNL1       -0.0600
     11 C           3.7320   -0.2500    0.0000 C.2     1  UNL1        0.3407
     12 C           6.3301    1.2500    0.0000 C.2     1  UNL1        0.2042
     13 C           2.0000   -0.2500    0.0000 C.3     1  UNL1        0.0820
     14 H           4.0611   -2.0600    0.0000 H       1  UNL1        0.0626
     15 H           6.8671   -0.4400    0.0000 H       1  UNL1        0.0636
     16 H           5.4641   -2.8700    0.0000 H       1  UNL1        0.0618
     17 H           6.8671   -2.0600    0.0000 H       1  UNL1        0.0618
     18 H           4.9272    1.0600    0.0000 H       1  UNL1        0.1546
     19 H           6.8671    0.9400    0.0000 H       1  UNL1        0.1255
     20 H           2.3100    0.2869    0.0000 H       1  UNL1        0.0661
     21 H           1.4631    0.0600    0.0000 H       1  UNL1        0.0661
     22 H           1.6900   -0.7869    0.0000 H       1  UNL1        0.0661
@<TRIPOS>BOND
     1     1    11    1
     2     1    13    1
     3     2    11    2
     4     3    12    2
     5     4     6    1
     6     4    12   am
     7     4    18    1
     8     5     6   ar
     9     5     7   ar
    10     5    11    1
    11     6     8   ar
    12     7     9   ar
    13     7    14    1
    14     8    10   ar
    15     8    15    1
    16     9    10   ar
    17     9    16    1
    18    10    17    1
    19    12    19    1
    20    13    20    1
    21    13    21    1
    22    13    22    1
