@<TRIPOS>MOLECULE
IMPHY012749
 101 105 0 0 0
SMALL
GASTEIGER

@<TRIPOS>ATOM
      1 O          10.3312   -2.7500    0.0000 O.3     1  UNL1       -0.3389
      2 O          10.3312    0.2500    0.0000 O.3     1  UNL1       -0.3394
      3 O          12.0632   -2.7500    0.0000 O.3     1  UNL1       -0.3431
      4 O           8.5991   -1.7500    0.0000 O.3     1  UNL1       -0.4528
      5 O           8.5991    1.2500    0.0000 O.3     1  UNL1       -0.3460
      6 O          12.0632    0.2500    0.0000 O.3     1  UNL1       -0.3484
      7 O          12.0632   -1.7500    0.0000 O.3     1  UNL1       -0.3841
      8 O           6.8671    1.2500    0.0000 O.3     1  UNL1       -0.3405
      9 O          10.3312   -4.7500    0.0000 O.3     1  UNL1       -0.3841
     10 O          12.0632   -5.7500    0.0000 O.3     1  UNL1       -0.3864
     11 O          13.7953   -4.7500    0.0000 O.3     1  UNL1       -0.3866
     12 O           8.5991    3.2500    0.0000 O.3     1  UNL1       -0.3841
     13 O           6.8671    4.2500    0.0000 O.3     1  UNL1       -0.3864
     14 O           5.1350    3.2500    0.0000 O.3     1  UNL1       -0.3865
     15 O           4.2690    1.7500    0.0000 O.3     1  UNL1       -0.3924
     16 O           7.7331   -0.2500    0.0000 O.2     1  UNL1       -0.2456
     17 O          14.6613    4.7500    0.0000 O.3     1  UNL1       -0.5033
     18 O          12.9292    5.7500    0.0000 O.3     1  UNL1       -0.5033
     19 O           2.5369   -1.2500    0.0000 O.3     1  UNL1       -0.5033
     20 O           2.5369   -3.2500    0.0000 O.3     1  UNL1       -0.5033
     21 C          10.3312   -1.7500    0.0000 C.3     1  UNL1        0.1316
     22 C           9.4651   -1.2500    0.0000 C.3     1  UNL1        0.1602
     23 C           9.4651   -0.2500    0.0000 C.3     1  UNL1        0.1244
     24 C          11.1972   -1.2500    0.0000 C.3     1  UNL1        0.1355
     25 C          11.1972   -0.2500    0.0000 C.3     1  UNL1        0.1880
     26 C          11.1972   -3.2500    0.0000 C.3     1  UNL1        0.1884
     27 C          11.1972   -4.2500    0.0000 C.3     1  UNL1        0.1341
     28 C           8.5991    0.2500    0.0000 C.3     1  UNL1        0.0806
     29 C          12.0632   -4.7500    0.0000 C.3     1  UNL1        0.1140
     30 C          12.9292   -4.2500    0.0000 C.3     1  UNL1        0.1095
     31 C          12.9292   -3.2500    0.0000 C.3     1  UNL1        0.0873
     32 C           7.7331    1.7500    0.0000 C.3     1  UNL1        0.1880
     33 C           7.7331    2.7500    0.0000 C.3     1  UNL1        0.1341
     34 C           6.8671    3.2500    0.0000 C.3     1  UNL1        0.1141
     35 C           6.0010    2.7500    0.0000 C.3     1  UNL1        0.1119
     36 C           6.0010    1.7500    0.0000 C.3     1  UNL1        0.1130
     37 C          13.7953   -2.7500    0.0000 C.3     1  UNL1       -0.0361
     38 C           5.1350    1.2500    0.0000 C.3     1  UNL1        0.0730
     39 C          12.0632    1.2500    0.0000 C.3     1  UNL1        0.0547
     40 C           7.7331   -1.2500    0.0000 C.2     1  UNL1        0.3324
     41 C          12.9292    1.7500    0.0000 C.3     1  UNL1       -0.0039
     42 C           6.8671   -1.7500    0.0000 C.2     1  UNL1        0.0231
     43 C          12.9292    2.7500    0.0000 C.ar    1  UNL1       -0.0415
     44 C           6.0010   -1.2500    0.0000 C.2     1  UNL1       -0.0477
     45 C          13.7953    3.2500    0.0000 C.ar    1  UNL1       -0.0133
     46 C          12.0632    3.2500    0.0000 C.ar    1  UNL1       -0.0548
     47 C           5.1350   -1.7500    0.0000 C.ar    1  UNL1       -0.0211
     48 C          13.7953    4.2500    0.0000 C.ar    1  UNL1        0.1585
     49 C          12.0632    4.2500    0.0000 C.ar    1  UNL1       -0.0163
     50 C          12.9292    4.7500    0.0000 C.ar    1  UNL1        0.1582
     51 C           4.2690   -1.2500    0.0000 C.ar    1  UNL1       -0.0094
     52 C           5.1350   -2.7500    0.0000 C.ar    1  UNL1       -0.0509
     53 C           3.4030   -1.7500    0.0000 C.ar    1  UNL1        0.1588
     54 C           4.2690   -3.2500    0.0000 C.ar    1  UNL1       -0.0160
     55 C           3.4030   -2.7500    0.0000 C.ar    1  UNL1        0.1582
     56 H          10.8681   -2.0600    0.0000 H       1  UNL1        0.0663
     57 H           9.4651   -1.8700    0.0000 H       1  UNL1        0.0788
     58 H           9.4651    0.3700    0.0000 H       1  UNL1        0.0658
     59 H          11.1972   -1.8700    0.0000 H       1  UNL1        0.0671
     60 H          11.7341   -0.5600    0.0000 H       1  UNL1        0.0937
     61 H          11.1972   -2.6300    0.0000 H       1  UNL1        0.0938
     62 H          11.1972   -4.8700    0.0000 H       1  UNL1        0.0671
     63 H           7.9885    0.3577    0.0000 H       1  UNL1        0.0588
     64 H           8.3871   -0.3326    0.0000 H       1  UNL1        0.0588
     65 H          11.5263   -5.0600    0.0000 H       1  UNL1        0.0648
     66 H          12.9292   -4.8700    0.0000 H       1  UNL1        0.0646
     67 H          12.9292   -2.6300    0.0000 H       1  UNL1        0.0621
     68 H           7.7331    1.1300    0.0000 H       1  UNL1        0.0937
     69 H           8.2700    2.4400    0.0000 H       1  UNL1        0.0671
     70 H           7.4040    3.5600    0.0000 H       1  UNL1        0.0648
     71 H           6.0010    3.3700    0.0000 H       1  UNL1        0.0647
     72 H           6.0010    1.1300    0.0000 H       1  UNL1        0.0647
     73 H          12.6002   -1.4400    0.0000 H       1  UNL1        0.2101
     74 H          14.1053   -3.2869    0.0000 H       1  UNL1        0.0255
     75 H          14.3322   -2.4400    0.0000 H       1  UNL1        0.0255
     76 H          13.4853   -2.2131    0.0000 H       1  UNL1        0.0255
     77 H          10.3312   -5.3700    0.0000 H       1  UNL1        0.2101
     78 H           4.7365    0.7751    0.0000 H       1  UNL1        0.0584
     79 H           5.5335    0.7751    0.0000 H       1  UNL1        0.0584
     80 H          11.8512    1.8326    0.0000 H       1  UNL1        0.0564
     81 H          11.4526    1.1423    0.0000 H       1  UNL1        0.0564
     82 H          12.6002   -6.0600    0.0000 H       1  UNL1        0.2100
     83 H          14.3322   -4.4400    0.0000 H       1  UNL1        0.2100
     84 H           8.5991    3.8700    0.0000 H       1  UNL1        0.2101
     85 H           6.3301    4.5600    0.0000 H       1  UNL1        0.2100
     86 H           5.1350    3.8700    0.0000 H       1  UNL1        0.2100
     87 H          13.1413    1.1674    0.0000 H       1  UNL1        0.0335
     88 H          13.5398    1.8577    0.0000 H       1  UNL1        0.0335
     89 H           6.8671   -2.3700    0.0000 H       1  UNL1        0.0689
     90 H           3.7320    1.4400    0.0000 H       1  UNL1        0.2095
     91 H           6.0010   -0.6300    0.0000 H       1  UNL1        0.0626
     92 H          14.3322    2.9400    0.0000 H       1  UNL1        0.0658
     93 H          11.5263    2.9400    0.0000 H       1  UNL1        0.0621
     94 H          11.5263    4.5600    0.0000 H       1  UNL1        0.0655
     95 H           4.2690   -0.6300    0.0000 H       1  UNL1        0.0661
     96 H           5.6720   -3.0600    0.0000 H       1  UNL1        0.0625
     97 H          15.1982    4.4400    0.0000 H       1  UNL1        0.2923
     98 H           4.2690   -3.8700    0.0000 H       1  UNL1        0.0655
     99 H          12.3923    6.0600    0.0000 H       1  UNL1        0.2923
    100 H           2.0000   -1.5600    0.0000 H       1  UNL1        0.2923
    101 H           2.5369   -3.8700    0.0000 H       1  UNL1        0.2923
@<TRIPOS>BOND
     1    21     1    1
     2    26     1    1
     3     2    23    1
     4     2    25    1
     5     3    26    1
     6     3    31    1
     7    22     4    1
     8     4    40    1
     9     5    28    1
    10    32     5    1
    11    25     6    1
    12     6    39    1
    13    24     7    1
    14     7    73    1
    15     8    32    1
    16     8    36    1
    17    27     9    1
    18     9    77    1
    19    29    10    1
    20    10    82    1
    21    30    11    1
    22    11    83    1
    23    33    12    1
    24    12    84    1
    25    34    13    1
    26    13    85    1
    27    35    14    1
    28    14    86    1
    29    15    38    1
    30    15    90    1
    31    16    40    2
    32    17    48    1
    33    17    97    1
    34    18    50    1
    35    18    99    1
    36    19    53    1
    37    19   100    1
    38    20    55    1
    39    20   101    1
    40    21    22    1
    41    21    24    1
    42    21    56    1
    43    22    23    1
    44    22    57    1
    45    23    28    1
    46    23    58    1
    47    24    25    1
    48    24    59    1
    49    25    60    1
    50    26    27    1
    51    26    61    1
    52    27    29    1
    53    27    62    1
    54    28    63    1
    55    28    64    1
    56    29    30    1
    57    29    65    1
    58    30    31    1
    59    30    66    1
    60    31    37    1
    61    31    67    1
    62    32    33    1
    63    32    68    1
    64    33    34    1
    65    33    69    1
    66    34    35    1
    67    34    70    1
    68    35    36    1
    69    35    71    1
    70    36    38    1
    71    36    72    1
    72    37    74    1
    73    37    75    1
    74    37    76    1
    75    38    78    1
    76    38    79    1
    77    39    41    1
    78    39    80    1
    79    39    81    1
    80    40    42    1
    81    41    43    1
    82    41    87    1
    83    41    88    1
    84    42    44    2
    85    42    89    1
    86    43    45   ar
    87    43    46   ar
    88    44    47    1
    89    44    91    1
    90    45    48   ar
    91    45    92    1
    92    46    49   ar
    93    46    93    1
    94    47    51   ar
    95    47    52   ar
    96    48    50   ar
    97    49    50   ar
    98    49    94    1
    99    51    53   ar
   100    51    95    1
   101    52    54   ar
   102    52    96    1
   103    53    55   ar
   104    54    55   ar
   105    54    98    1
