@<TRIPOS>MOLECULE
IMPHY010196
 28 27 0 0 0
SMALL
GASTEIGER

@<TRIPOS>ATOM
      1 O           2.5369    0.4400    0.0000 O.3     1  UNL1       -0.4775
      2 O           3.4030   -1.0600    0.0000 O.2     1  UNL1       -0.2458
      3 C           9.4651    0.4400    0.0000 C.3     1  UNL1       -0.0530
      4 C           8.5991   -0.0600    0.0000 C.3     1  UNL1       -0.0496
      5 C          10.3312   -0.0600    0.0000 C.3     1  UNL1       -0.0559
      6 C           7.7331    0.4400    0.0000 C.3     1  UNL1       -0.0345
      7 C          11.1972    0.4400    0.0000 C.3     1  UNL1       -0.0653
      8 C           6.8671   -0.0600    0.0000 C.2     1  UNL1       -0.0840
      9 C           6.0010    0.4400    0.0000 C.2     1  UNL1       -0.0655
     10 C           5.1350   -0.0600    0.0000 C.2     1  UNL1       -0.0553
     11 C           4.2690    0.4400    0.0000 C.2     1  UNL1        0.0223
     12 C           3.4030   -0.0600    0.0000 C.2     1  UNL1        0.3295
     13 H           9.8637    0.9149    0.0000 H       1  UNL1        0.0265
     14 H           9.0666    0.9149    0.0000 H       1  UNL1        0.0265
     15 H           8.2006   -0.5349    0.0000 H       1  UNL1        0.0268
     16 H           8.9976   -0.5349    0.0000 H       1  UNL1        0.0268
     17 H           9.9326   -0.5349    0.0000 H       1  UNL1        0.0263
     18 H          10.7297   -0.5349    0.0000 H       1  UNL1        0.0263
     19 H           8.1316    0.9149    0.0000 H       1  UNL1        0.0307
     20 H           7.3346    0.9149    0.0000 H       1  UNL1        0.0307
     21 H          11.5072   -0.0969    0.0000 H       1  UNL1        0.0230
     22 H          11.7341    0.7500    0.0000 H       1  UNL1        0.0230
     23 H          10.8872    0.9769    0.0000 H       1  UNL1        0.0230
     24 H           6.8671   -0.6800    0.0000 H       1  UNL1        0.0572
     25 H           6.0010    1.0600    0.0000 H       1  UNL1        0.0615
     26 H           5.1350   -0.6800    0.0000 H       1  UNL1        0.0620
     27 H           4.2690    1.0600    0.0000 H       1  UNL1        0.0689
     28 H           2.0000    0.1300    0.0000 H       1  UNL1        0.2954
@<TRIPOS>BOND
     1     1    12    1
     2     1    28    1
     3     2    12    2
     4     3     4    1
     5     3     5    1
     6     3    13    1
     7     3    14    1
     8     4     6    1
     9     4    15    1
    10     4    16    1
    11     5     7    1
    12     5    17    1
    13     5    18    1
    14     6     8    1
    15     6    19    1
    16     6    20    1
    17     7    21    1
    18     7    22    1
    19     7    23    1
    20     8     9    2
    21     8    24    1
    22     9    10    1
    23     9    25    1
    24    10    11    2
    25    10    26    1
    26    11    12    1
    27    11    27    1
