@<TRIPOS>MOLECULE
IMPHY012931
 73 76 0 0 0
SMALL
GASTEIGER

@<TRIPOS>ATOM
      1 O           6.0010   -1.5359    0.0000 O.2     1  UNL1       -0.4702
      2 O           8.9900    0.7194    0.0000 O.3     1  UNL1       -0.4550
      3 O           6.8671   -3.0359    0.0000 O.3     1  UNL1       -0.3096
      4 O          10.2629   -1.0359    0.0000 O.3     1  UNL1       -0.3877
      5 O           9.9685   -2.9974    0.0000 O.3     1  UNL1       -0.3946
      6 O           5.1350   -3.0359    0.0000 O.3     1  UNL1       -0.3404
      7 O           6.0010    1.4641    0.0000 O.3     1  UNL1       -0.4646
      8 O           6.8671   -5.0359    0.0000 O.3     1  UNL1       -0.3841
      9 O           7.7331    1.4641    0.0000 O.2     1  UNL1       -0.2452
     10 O           5.1350   -6.0359    0.0000 O.3     1  UNL1       -0.3864
     11 O           3.4030   -5.0359    0.0000 O.3     1  UNL1       -0.3865
     12 O          10.6363    0.1813    0.0000 O.2     1  UNL1       -0.2456
     13 O           2.5369   -3.5359    0.0000 O.3     1  UNL1       -0.3924
     14 O          13.8360    4.3958    0.0000 O.3     1  UNL1       -0.5033
     15 O          12.5003    5.8844    0.0000 O.3     1  UNL1       -0.5033
     16 C           7.7331   -1.5359    0.0000 C.3     1  UNL1        0.0396
     17 C           7.7331   -0.5359    0.0000 C.3     1  UNL1        0.0423
     18 C           8.6793   -1.8406    0.0000 C.3     1  UNL1        0.0208
     19 C           8.6793   -0.2311    0.0000 C.3     1  UNL1        0.1369
     20 C           9.2629   -1.0359    0.0000 C.3     1  UNL1        0.0980
     21 C           6.8671   -2.0359    0.0000 C.3     1  UNL1        0.2074
     22 C           6.8671   -0.0359    0.0000 C.2     1  UNL1        0.0779
     23 C           8.9900   -2.7911    0.0000 C.3     1  UNL1        0.0500
     24 C           6.0010   -0.5359    0.0000 C.2     1  UNL1        0.0982
     25 C           6.0010   -3.5359    0.0000 C.3     1  UNL1        0.1918
     26 C           6.8671    0.9641    0.0000 C.2     1  UNL1        0.3382
     27 C           6.0010   -4.5359    0.0000 C.3     1  UNL1        0.1342
     28 C           5.1350   -5.0359    0.0000 C.3     1  UNL1        0.1141
     29 C           4.2690   -4.5359    0.0000 C.3     1  UNL1        0.1119
     30 C           4.2690   -3.5359    0.0000 C.3     1  UNL1        0.1130
     31 C           9.9685    0.9256    0.0000 C.2     1  UNL1        0.3323
     32 C           3.4030   -3.0359    0.0000 C.3     1  UNL1        0.0730
     33 C          10.2791    1.8761    0.0000 C.2     1  UNL1        0.0231
     34 C           6.0010    2.4641    0.0000 C.3     1  UNL1        0.0820
     35 C          11.2576    2.0823    0.0000 C.2     1  UNL1       -0.0477
     36 C          11.5683    3.0328    0.0000 C.ar    1  UNL1       -0.0211
     37 C          12.5468    3.2391    0.0000 C.ar    1  UNL1       -0.0094
     38 C          10.9005    3.7772    0.0000 C.ar    1  UNL1       -0.0509
     39 C          12.8575    4.1896    0.0000 C.ar    1  UNL1        0.1588
     40 C          11.2111    4.7277    0.0000 C.ar    1  UNL1       -0.0160
     41 C          12.1896    4.9339    0.0000 C.ar    1  UNL1        0.1582
     42 H           7.7987   -2.1524    0.0000 H       1  UNL1        0.0373
     43 H           7.8230    0.3093    0.0000 H       1  UNL1        0.0394
     44 H           8.2418   -2.2800    0.0000 H       1  UNL1        0.0354
     45 H           8.2418    0.2082    0.0000 H       1  UNL1        0.0766
     46 H           9.5446   -0.4836    0.0000 H       1  UNL1        0.0634
     47 H           7.4040   -2.3459    0.0000 H       1  UNL1        0.1059
     48 H           8.3762   -2.8785    0.0000 H       1  UNL1        0.0561
     49 H           8.9694   -3.4108    0.0000 H       1  UNL1        0.0561
     50 H           5.4641   -0.2259    0.0000 H       1  UNL1        0.1029
     51 H          10.5729   -0.4989    0.0000 H       1  UNL1        0.2100
     52 H           6.0010   -2.9159    0.0000 H       1  UNL1        0.0939
     53 H           6.0010   -5.1559    0.0000 H       1  UNL1        0.0671
     54 H          10.1611   -3.5867    0.0000 H       1  UNL1        0.2094
     55 H           4.5981   -5.3459    0.0000 H       1  UNL1        0.0648
     56 H           4.2690   -5.1559    0.0000 H       1  UNL1        0.0647
     57 H           4.2690   -2.9159    0.0000 H       1  UNL1        0.0647
     58 H           3.8015   -2.5609    0.0000 H       1  UNL1        0.0584
     59 H           3.0044   -2.5609    0.0000 H       1  UNL1        0.0584
     60 H           6.8671   -5.6559    0.0000 H       1  UNL1        0.2101
     61 H           9.8651    2.3376    0.0000 H       1  UNL1        0.0689
     62 H           4.5981   -6.3459    0.0000 H       1  UNL1        0.2100
     63 H           3.4030   -5.6559    0.0000 H       1  UNL1        0.2100
     64 H           6.6210    2.4641    0.0000 H       1  UNL1        0.0661
     65 H           6.0010    3.0841    0.0000 H       1  UNL1        0.0661
     66 H           5.3810    2.4641    0.0000 H       1  UNL1        0.0661
     67 H          11.6717    1.6209    0.0000 H       1  UNL1        0.0626
     68 H           2.0000   -3.2259    0.0000 H       1  UNL1        0.2095
     69 H          12.9609    2.7776    0.0000 H       1  UNL1        0.0661
     70 H          10.2938    3.6493    0.0000 H       1  UNL1        0.0625
     71 H          10.7971    5.1891    0.0000 H       1  UNL1        0.0655
     72 H          14.2500    3.9343    0.0000 H       1  UNL1        0.2923
     73 H          12.0862    6.3459    0.0000 H       1  UNL1        0.2923
@<TRIPOS>BOND
     1     1    21    1
     2     1    24    1
     3     2    19    1
     4     2    31    1
     5    21     3    1
     6    25     3    1
     7     4    20    1
     8     4    51    1
     9     5    23    1
    10     5    54    1
    11     6    25    1
    12     6    30    1
    13     7    26    1
    14     7    34    1
    15    27     8    1
    16     8    60    1
    17     9    26    2
    18    28    10    1
    19    10    62    1
    20    29    11    1
    21    11    63    1
    22    12    31    2
    23    13    32    1
    24    13    68    1
    25    14    39    1
    26    14    72    1
    27    15    41    1
    28    15    73    1
    29    16    17    1
    30    16    18    1
    31    16    21    1
    32    16    42    1
    33    17    19    1
    34    17    22    1
    35    17    43    1
    36    18    20    1
    37    18    23    1
    38    18    44    1
    39    19    20    1
    40    19    45    1
    41    20    46    1
    42    21    47    1
    43    22    24    2
    44    22    26    1
    45    23    48    1
    46    23    49    1
    47    24    50    1
    48    25    27    1
    49    25    52    1
    50    27    28    1
    51    27    53    1
    52    28    29    1
    53    28    55    1
    54    29    30    1
    55    29    56    1
    56    30    32    1
    57    30    57    1
    58    31    33    1
    59    32    58    1
    60    32    59    1
    61    33    35    2
    62    33    61    1
    63    34    64    1
    64    34    65    1
    65    34    66    1
    66    35    36    1
    67    35    67    1
    68    36    37   ar
    69    36    38   ar
    70    37    39   ar
    71    37    69    1
    72    38    40   ar
    73    38    70    1
    74    39    41   ar
    75    40    41   ar
    76    40    71    1
