@<TRIPOS>MOLECULE
IMPHY016365
 27 26 0 0 0
SMALL
GASTEIGER

@<TRIPOS>ATOM
      1 O           4.0981    0.5490    0.0000 O.3     1  UNL1       -0.3886
      2 C           4.5981   -0.3170    0.0000 C.3     1  UNL1        0.0656
      3 C           5.4641    0.1830    0.0000 C.3     1  UNL1       -0.0180
      4 C           3.7320   -0.8170    0.0000 C.3     1  UNL1       -0.0243
      5 C           5.0981   -1.1830    0.0000 C.3     1  UNL1       -0.0358
      6 C           2.8660   -0.3170    0.0000 C.3     1  UNL1       -0.0533
      7 C           6.3301   -0.3170    0.0000 C.3     1  UNL1       -0.0601
      8 C           5.4641    1.1830    0.0000 C.3     1  UNL1       -0.0601
      9 C           2.0000   -0.8170    0.0000 C.3     1  UNL1       -0.0652
     10 H           5.4641   -0.4370    0.0000 H       1  UNL1        0.0323
     11 H           3.3335   -1.2919    0.0000 H       1  UNL1        0.0293
     12 H           4.1306   -1.2919    0.0000 H       1  UNL1        0.0293
     13 H           4.5611   -1.4930    0.0000 H       1  UNL1        0.0257
     14 H           5.4081   -1.7200    0.0000 H       1  UNL1        0.0257
     15 H           5.6350   -0.8730    0.0000 H       1  UNL1        0.0257
     16 H           3.2646    0.1580    0.0000 H       1  UNL1        0.0264
     17 H           2.4675    0.1580    0.0000 H       1  UNL1        0.0264
     18 H           6.0201   -0.8539    0.0000 H       1  UNL1        0.0233
     19 H           6.8671   -0.6270    0.0000 H       1  UNL1        0.0233
     20 H           6.6401    0.2199    0.0000 H       1  UNL1        0.0233
     21 H           6.0841    1.1830    0.0000 H       1  UNL1        0.0233
     22 H           5.4641    1.8030    0.0000 H       1  UNL1        0.0233
     23 H           4.8441    1.1830    0.0000 H       1  UNL1        0.0233
     24 H           3.4781    0.5490    0.0000 H       1  UNL1        0.2102
     25 H           1.6900   -0.2801    0.0000 H       1  UNL1        0.0230
     26 H           1.4631   -1.1270    0.0000 H       1  UNL1        0.0230
     27 H           2.3100   -1.3539    0.0000 H       1  UNL1        0.0230
@<TRIPOS>BOND
     1     1     2    1
     2     1    24    1
     3     2     3    1
     4     2     4    1
     5     2     5    1
     6     3     7    1
     7     3     8    1
     8     3    10    1
     9     4     6    1
    10     4    11    1
    11     4    12    1
    12     5    13    1
    13     5    14    1
    14     5    15    1
    15     6     9    1
    16     6    16    1
    17     6    17    1
    18     7    18    1
    19     7    19    1
    20     7    20    1
    21     8    21    1
    22     8    22    1
    23     8    23    1
    24     9    25    1
    25     9    26    1
    26     9    27    1
