@<TRIPOS>MOLECULE
IMPHY000577
 20 20 0 0 0
SMALL
GASTEIGER

@<TRIPOS>ATOM
      1 O           4.5981    1.7500    0.0000 O.3     1  UNL1       -0.4936
      2 O           2.8660   -1.2500    0.0000 O.2     1  UNL1       -0.2662
      3 N           4.5981   -1.2500    0.0000 N.ar    1  UNL1       -0.3170
      4 N           2.0000    1.2500    0.0000 N.1     1  UNL1       -0.1906
      5 C           4.5981    0.7500    0.0000 C.ar    1  UNL1        0.1441
      6 C           3.7320   -0.7500    0.0000 C.ar    1  UNL1        0.2721
      7 C           3.7320    0.2500    0.0000 C.ar    1  UNL1        0.1574
      8 C           5.4641   -0.7500    0.0000 C.ar    1  UNL1        0.0111
      9 C           5.4641    0.2500    0.0000 C.ar    1  UNL1       -0.0023
     10 C           4.5981   -2.2500    0.0000 C.3     1  UNL1        0.0147
     11 C           5.4641    2.2500    0.0000 C.3     1  UNL1        0.0788
     12 C           2.8660    0.7500    0.0000 C.1     1  UNL1        0.1083
     13 H           6.0010   -1.0600    0.0000 H       1  UNL1        0.0811
     14 H           6.0010    0.5600    0.0000 H       1  UNL1        0.0669
     15 H           3.9781   -2.2500    0.0000 H       1  UNL1        0.0457
     16 H           4.5981   -2.8700    0.0000 H       1  UNL1        0.0457
     17 H           5.2181   -2.2500    0.0000 H       1  UNL1        0.0457
     18 H           5.7741    1.7131    0.0000 H       1  UNL1        0.0660
     19 H           6.0010    2.5600    0.0000 H       1  UNL1        0.0660
     20 H           5.1541    2.7869    0.0000 H       1  UNL1        0.0660
@<TRIPOS>BOND
     1     1     5    1
     2     1    11    1
     3     2     6    2
     4     3     6   ar
     5     3     8   ar
     6     3    10    1
     7     4    12    3
     8     5     7   ar
     9     5     9   ar
    10     6     7   ar
    11     7    12    1
    12     8     9   ar
    13     8    13    1
    14     9    14    1
    15    10    15    1
    16    10    16    1
    17    10    17    1
    18    11    18    1
    19    11    19    1
    20    11    20    1
