@<TRIPOS>MOLECULE
IMPHY016250
 18 17 0 0 0
SMALL
GASTEIGER

@<TRIPOS>ATOM
      1 C           3.7320    0.7500    0.0000 C.3     1  UNL1       -0.0325
      2 C           4.5981    0.2500    0.0000 C.3     1  UNL1       -0.0522
      3 C           2.8660    0.2500    0.0000 C.2     1  UNL1       -0.0797
      4 C           5.4641    0.7500    0.0000 C.3     1  UNL1       -0.0650
      5 C           2.0000    0.7500    0.0000 C.3     1  UNL1       -0.0440
      6 C           2.8660   -0.7500    0.0000 C.2     1  UNL1       -0.0997
      7 H           4.1306    1.2250    0.0000 H       1  UNL1        0.0310
      8 H           3.3335    1.2250    0.0000 H       1  UNL1        0.0310
      9 H           4.1996   -0.2249    0.0000 H       1  UNL1        0.0266
     10 H           4.9966   -0.2249    0.0000 H       1  UNL1        0.0266
     11 H           5.7741    0.2131    0.0000 H       1  UNL1        0.0230
     12 H           6.0010    1.0600    0.0000 H       1  UNL1        0.0230
     13 H           5.1541    1.2869    0.0000 H       1  UNL1        0.0230
     14 H           2.3100    1.2869    0.0000 H       1  UNL1        0.0274
     15 H           1.4631    1.0600    0.0000 H       1  UNL1        0.0274
     16 H           1.6900    0.2131    0.0000 H       1  UNL1        0.0274
     17 H           2.3291   -1.0600    0.0000 H       1  UNL1        0.0534
     18 H           3.4030   -1.0600    0.0000 H       1  UNL1        0.0534
@<TRIPOS>BOND
     1     1     2    1
     2     1     3    1
     3     1     7    1
     4     1     8    1
     5     2     4    1
     6     2     9    1
     7     2    10    1
     8     3     5    1
     9     3     6    2
    10     4    11    1
    11     4    12    1
    12     4    13    1
    13     5    14    1
    14     5    15    1
    15     5    16    1
    16     6    17    1
    17     6    18    1
