@<TRIPOS>MOLECULE
IMPHY009527
 23 23 0 0 0
SMALL
GASTEIGER

@<TRIPOS>ATOM
      1 N           2.8660   -0.2500    0.0000 N.3     1  UNL1       -0.3026
      2 C           2.0000    0.2500    0.0000 C.3     1  UNL1       -0.0011
      3 C           3.7320    0.2500    0.0000 C.3     1  UNL1       -0.0011
      4 C           2.0000    1.2500    0.0000 C.3     1  UNL1       -0.0402
      5 C           3.7320    1.2500    0.0000 C.3     1  UNL1       -0.0402
      6 C           2.8660    1.7500    0.0000 C.3     1  UNL1       -0.0507
      7 C           2.8660   -1.2500    0.0000 C.3     1  UNL1       -0.0039
      8 C           2.0000   -1.7500    0.0000 C.3     1  UNL1       -0.0524
      9 H           3.9441   -0.3326    0.0000 H       1  UNL1        0.0426
     10 H           4.3426    0.3577    0.0000 H       1  UNL1        0.0426
     11 H           1.3894    0.3577    0.0000 H       1  UNL1        0.0426
     12 H           1.7880   -0.3326    0.0000 H       1  UNL1        0.0426
     13 H           1.7880    1.8326    0.0000 H       1  UNL1        0.0278
     14 H           4.3426    1.1423    0.0000 H       1  UNL1        0.0278
     15 H           3.9441    1.8326    0.0000 H       1  UNL1        0.0278
     16 H           1.3894    1.1423    0.0000 H       1  UNL1        0.0278
     17 H           3.2646    2.2250    0.0000 H       1  UNL1        0.0266
     18 H           2.4675    2.2250    0.0000 H       1  UNL1        0.0266
     19 H           3.0781   -1.8326    0.0000 H       1  UNL1        0.0424
     20 H           3.4766   -1.1423    0.0000 H       1  UNL1        0.0424
     21 H           1.6900   -1.2131    0.0000 H       1  UNL1        0.0242
     22 H           1.4631   -2.0600    0.0000 H       1  UNL1        0.0242
     23 H           2.3100   -2.2869    0.0000 H       1  UNL1        0.0242
@<TRIPOS>BOND
     1     1     2    1
     2     1     3    1
     3     1     7    1
     4     2     4    1
     5     2    11    1
     6     2    12    1
     7     3     5    1
     8     3     9    1
     9     3    10    1
    10     4     6    1
    11     4    13    1
    12     4    16    1
    13     5     6    1
    14     5    14    1
    15     5    15    1
    16     6    17    1
    17     6    18    1
    18     7     8    1
    19     7    19    1
    20     7    20    1
    21     8    21    1
    22     8    22    1
    23     8    23    1
