@<TRIPOS>MOLECULE
IMPHY011102
 21 22 0 0 0
SMALL
GASTEIGER

@<TRIPOS>ATOM
      1 O           2.8660    1.5420    0.0000 O.3     1  UNL1       -0.4795
      2 OXT         2.0000    0.0420    0.0000 O.2     1  UNL1       -0.2492
      3 N           3.7320   -0.9580    0.0000 N.3     1  UNL1       -0.2983
      4 N           6.4103   -1.2627    0.0000 N.ar    1  UNL1       -0.3470
      5 N           6.4103    0.3468    0.0000 N.ar    1  UNL1       -0.2405
      6 CA          3.7320    0.0420    0.0000 C.3     1  UNL1        0.1115
      7 C           4.5981    0.5420    0.0000 C.3     1  UNL1        0.0172
      8 C           5.4641    0.0420    0.0000 C.ar    1  UNL1        0.0653
      9 C           4.5981   -1.4580    0.0000 C.3     1  UNL1        0.0388
     10 C           5.4641   -0.9580    0.0000 C.ar    1  UNL1        0.0526
     11 C           2.8660    0.5420    0.0000 C.2     1  UNL1        0.3223
     12 C           6.9939   -0.4580    0.0000 C.ar    1  UNL1        0.0939
     13 HA          3.1951   -0.2680    0.0000 H       1  UNL1        0.0580
     14 H           4.9966    1.0170    0.0000 H       1  UNL1        0.0349
     15 H           4.1996    1.0170    0.0000 H       1  UNL1        0.0349
     16 H           4.1996   -1.9329    0.0000 H       1  UNL1        0.0489
     17 H           4.9966   -1.9329    0.0000 H       1  UNL1        0.0489
     18 H           3.1951   -1.2680    0.0000 H       1  UNL1        0.1231
     19 H           6.6029   -1.8520    0.0000 H       1  UNL1        0.1665
     20 H           7.6139   -0.4580    0.0000 H       1  UNL1        0.1027
     21 H           2.3291    1.8520    0.0000 H       1  UNL1        0.2951
@<TRIPOS>BOND
     1     1    11    1
     2     1    21    1
     3     2    11    2
     4     3     6    1
     5     3     9    1
     6     3    18    1
     7     4    10   ar
     8     4    12   ar
     9     4    19    1
    10     5     8   ar
    11     5    12   ar
    12     6     7    1
    13     6    11    1
    14     6    13    1
    15     7     8    1
    16     7    14    1
    17     7    15    1
    18     8    10   ar
    19     9    10    1
    20     9    16    1
    21     9    17    1
    22    12    20    1
