@<TRIPOS>MOLECULE
IMPHY009117
 73 78 0 0 0
SMALL
GASTEIGER

@<TRIPOS>ATOM
      1 O           3.4958    2.4690    0.0000 O.3     1  UNL1       -0.3684
      2 O           6.0434    0.5898    0.0000 O.3     1  UNL1       -0.4554
      3 O           4.5981   -0.5757    0.0000 O.3     1  UNL1       -0.4564
      4 O           4.0608    0.5613    0.0000 O.3     1  UNL1       -0.4529
      5 O           7.9622    1.5671    0.0000 O.3     1  UNL1       -0.3730
      6 O           7.2179    2.9558    0.0000 O.3     1  UNL1       -0.3910
      7 O           8.0280   -2.5166    0.0000 O.3     1  UNL1       -0.3875
      8 O           7.7014    0.5406    0.0000 O.2     1  UNL1       -0.2472
      9 O           2.5676   -0.3163    0.0000 O.2     1  UNL1       -0.2511
     10 O           5.4641   -2.0757    0.0000 O.2     1  UNL1       -0.2450
     11 C           5.4641    0.9243    0.0000 C.3     1  UNL1        0.0529
     12 C           6.3301    1.4243    0.0000 C.3     1  UNL1        0.0471
     13 C           6.3301   -0.5757    0.0000 C.3     1  UNL1        0.0744
     14 C           5.4641   -0.0757    0.0000 C.3     1  UNL1        0.1238
     15 C           4.5541    1.4311    0.0000 C.3     1  UNL1        0.1692
     16 C           7.1962    0.9243    0.0000 C.3     1  UNL1        0.1927
     17 C           7.1962   -0.0757    0.0000 C.2     1  UNL1       -0.0121
     18 C           6.3462    2.4658    0.0000 C.3     1  UNL1        0.0671
     19 C           4.5461    2.4727    0.0000 C.3     1  UNL1        0.1034
     20 C           6.1270   -0.2058    0.0000 C.3     1  UNL1        0.1209
     21 C           6.5393   -1.5475    0.0000 C.3     1  UNL1       -0.0064
     22 C           5.4482    2.9936    0.0000 C.3     1  UNL1        0.0040
     23 C           3.5039    1.4187    0.0000 C.3     1  UNL1        0.0909
     24 C           7.1962    1.9243    0.0000 C.3     1  UNL1       -0.0532
     25 C           7.9332   -0.7428    0.0000 C.2     1  UNL1       -0.0412
     26 C           7.5280   -1.6506    0.0000 C.3     1  UNL1        0.0774
     27 C           6.7742    0.9152    0.0000 C.2     1  UNL1        0.3447
     28 C           5.8180   -1.1568    0.0000 C.3     1  UNL1       -0.0241
     29 C           5.2789   -0.7356    0.0000 C.3     1  UNL1       -0.0241
     30 C           8.9117   -0.5366    0.0000 C.3     1  UNL1       -0.0410
     31 C           3.0608    0.5535    0.0000 C.2     1  UNL1        0.3046
     32 C           4.5981   -1.5757    0.0000 C.2     1  UNL1        0.3395
     33 C           2.5542    1.4158    0.0000 C.3     1  UNL1        0.0333
     34 C           3.7320   -2.0757    0.0000 C.ar    1  UNL1        0.0590
     35 C           2.8660   -1.5757    0.0000 C.ar    1  UNL1       -0.0478
     36 C           3.7320   -3.0757    0.0000 C.ar    1  UNL1       -0.0478
     37 C           2.0000   -2.0757    0.0000 C.ar    1  UNL1       -0.0610
     38 C           2.8660   -3.5757    0.0000 C.ar    1  UNL1       -0.0610
     39 C           2.0000   -3.0757    0.0000 C.ar    1  UNL1       -0.0617
     40 H           4.7280    0.4993    0.0000 H       1  UNL1        0.0385
     41 H           5.4641   -0.6957    0.0000 H       1  UNL1        0.0748
     42 H           6.3522    3.0858    0.0000 H       1  UNL1        0.0601
     43 H           4.3246    3.2934    0.0000 H       1  UNL1        0.0638
     44 H           5.9229   -1.6136    0.0000 H       1  UNL1        0.0304
     45 H           6.5402   -2.1675    0.0000 H       1  UNL1        0.0304
     46 H           5.8491    3.4664    0.0000 H       1  UNL1        0.0317
     47 H           5.0508    3.4695    0.0000 H       1  UNL1        0.0317
     48 H           2.8839    1.4131    0.0000 H       1  UNL1        0.0601
     49 H           3.5104    0.7988    0.0000 H       1  UNL1        0.0601
     50 H           7.5062    1.3874    0.0000 H       1  UNL1        0.0237
     51 H           7.7331    2.2343    0.0000 H       1  UNL1        0.0237
     52 H           6.8862    2.4612    0.0000 H       1  UNL1        0.0237
     53 H           7.1906   -2.1707    0.0000 H       1  UNL1        0.0640
     54 H           5.2284   -0.9653    0.0000 H       1  UNL1        0.0268
     55 H           5.6264   -1.7465    0.0000 H       1  UNL1        0.0268
     56 H           6.4077   -1.3484    0.0000 H       1  UNL1        0.0268
     57 H           4.9504   -0.2098    0.0000 H       1  UNL1        0.0268
     58 H           4.7531   -1.0642    0.0000 H       1  UNL1        0.0268
     59 H           5.6074   -1.2615    0.0000 H       1  UNL1        0.0268
     60 H           8.5448    1.3550    0.0000 H       1  UNL1        0.2113
     61 H           7.2251    3.5757    0.0000 H       1  UNL1        0.2098
     62 H           9.0395   -1.1433    0.0000 H       1  UNL1        0.0275
     63 H           9.5184   -0.4087    0.0000 H       1  UNL1        0.0275
     64 H           8.7838    0.0701    0.0000 H       1  UNL1        0.0275
     65 H           7.7180   -3.0535    0.0000 H       1  UNL1        0.2102
     66 H           3.0887    1.7299    0.0000 H       1  UNL1        0.0342
     67 H           2.2400    1.9503    0.0000 H       1  UNL1        0.0342
     68 H           2.0196    1.1016    0.0000 H       1  UNL1        0.0342
     69 H           2.8660   -0.9557    0.0000 H       1  UNL1        0.0626
     70 H           4.2690   -3.3857    0.0000 H       1  UNL1        0.0626
     71 H           1.4631   -1.7657    0.0000 H       1  UNL1        0.0618
     72 H           2.8660   -4.1957    0.0000 H       1  UNL1        0.0618
     73 H           1.4631   -3.3857    0.0000 H       1  UNL1        0.0618
@<TRIPOS>BOND
     1     1    19    1
     2     1    23    1
     3     2    20    1
     4     2    27    1
     5    14     3    1
     6     3    32    1
     7    15     4    1
     8     4    31    1
     9    16     5    1
    10     5    60    1
    11    18     6    1
    12     6    61    1
    13    26     7    1
    14     7    65    1
    15     8    27    2
    16     9    31    2
    17    10    32    2
    18    11    12    1
    19    11    14    1
    20    11    15    1
    21    11    40    1
    22    12    16    1
    23    12    18    1
    24    12    24    1
    25    13    14    1
    26    13    17    1
    27    13    20    1
    28    13    21    1
    29    14    41    1
    30    15    19    1
    31    15    23    1
    32    16    17    1
    33    16    27    1
    34    17    25    2
    35    18    22    1
    36    18    42    1
    37    19    22    1
    38    19    43    1
    39    20    28    1
    40    20    29    1
    41    21    26    1
    42    21    44    1
    43    21    45    1
    44    22    46    1
    45    22    47    1
    46    23    48    1
    47    23    49    1
    48    24    50    1
    49    24    51    1
    50    24    52    1
    51    25    26    1
    52    25    30    1
    53    26    53    1
    54    28    54    1
    55    28    55    1
    56    28    56    1
    57    29    57    1
    58    29    58    1
    59    29    59    1
    60    30    62    1
    61    30    63    1
    62    30    64    1
    63    31    33    1
    64    32    34    1
    65    33    66    1
    66    33    67    1
    67    33    68    1
    68    34    35   ar
    69    34    36   ar
    70    35    37   ar
    71    35    69    1
    72    36    38   ar
    73    36    70    1
    74    37    39   ar
    75    37    71    1
    76    38    39   ar
    77    38    72    1
    78    39    73    1
