@<TRIPOS>MOLECULE
IMPHY017358
 47 46 0 0 0
SMALL
GASTEIGER

@<TRIPOS>ATOM
      1 O           2.8660    0.7500    0.0000 O.3     1  UNL1       -0.4649
      2 O           3.7320   -0.7500    0.0000 O.2     1  UNL1       -0.2456
      3 C          13.2583    0.7500    0.0000 C.3     1  UNL1       -0.0531
      4 C          12.3923    0.2500    0.0000 C.3     1  UNL1       -0.0530
      5 C          14.1244    0.2500    0.0000 C.3     1  UNL1       -0.0531
      6 C          11.5263    0.7500    0.0000 C.3     1  UNL1       -0.0528
      7 C          14.9904    0.7500    0.0000 C.3     1  UNL1       -0.0533
      8 C          10.6603    0.2500    0.0000 C.3     1  UNL1       -0.0496
      9 C          15.8564    0.2500    0.0000 C.3     1  UNL1       -0.0559
     10 C           9.7942    0.7500    0.0000 C.3     1  UNL1       -0.0345
     11 C          16.7224    0.7500    0.0000 C.3     1  UNL1       -0.0653
     12 C           8.9282    0.2500    0.0000 C.2     1  UNL1       -0.0840
     13 C           8.0622    0.7500    0.0000 C.2     1  UNL1       -0.0657
     14 C           7.1962    0.2500    0.0000 C.2     1  UNL1       -0.0621
     15 C           6.3301    0.7500    0.0000 C.2     1  UNL1       -0.0616
     16 C           5.4641    0.2500    0.0000 C.2     1  UNL1       -0.0550
     17 C           4.5981    0.7500    0.0000 C.2     1  UNL1        0.0225
     18 C           3.7320    0.2500    0.0000 C.2     1  UNL1        0.3317
     19 C           2.0000    0.2500    0.0000 C.3     1  UNL1        0.0820
     20 H          13.6569    1.2250    0.0000 H       1  UNL1        0.0265
     21 H          12.8598    1.2250    0.0000 H       1  UNL1        0.0265
     22 H          11.9938   -0.2249    0.0000 H       1  UNL1        0.0265
     23 H          12.7908   -0.2249    0.0000 H       1  UNL1        0.0265
     24 H          13.7258   -0.2249    0.0000 H       1  UNL1        0.0265
     25 H          14.5229   -0.2249    0.0000 H       1  UNL1        0.0265
     26 H          11.9248    1.2250    0.0000 H       1  UNL1        0.0265
     27 H          11.1278    1.2250    0.0000 H       1  UNL1        0.0265
     28 H          15.3889    1.2250    0.0000 H       1  UNL1        0.0265
     29 H          14.5919    1.2250    0.0000 H       1  UNL1        0.0265
     30 H          10.2617   -0.2249    0.0000 H       1  UNL1        0.0268
     31 H          11.0588   -0.2249    0.0000 H       1  UNL1        0.0268
     32 H          15.4579   -0.2249    0.0000 H       1  UNL1        0.0263
     33 H          16.2549   -0.2249    0.0000 H       1  UNL1        0.0263
     34 H          10.1928    1.2250    0.0000 H       1  UNL1        0.0307
     35 H           9.3957    1.2250    0.0000 H       1  UNL1        0.0307
     36 H          17.0324    0.2131    0.0000 H       1  UNL1        0.0230
     37 H          17.2594    1.0600    0.0000 H       1  UNL1        0.0230
     38 H          16.4124    1.2869    0.0000 H       1  UNL1        0.0230
     39 H           8.9282   -0.3700    0.0000 H       1  UNL1        0.0572
     40 H           8.0622    1.3700    0.0000 H       1  UNL1        0.0614
     41 H           7.1962   -0.3700    0.0000 H       1  UNL1        0.0617
     42 H           6.3301    1.3700    0.0000 H       1  UNL1        0.0618
     43 H           5.4641   -0.3700    0.0000 H       1  UNL1        0.0620
     44 H           4.5981    1.3700    0.0000 H       1  UNL1        0.0689
     45 H           1.6900    0.7869    0.0000 H       1  UNL1        0.0661
     46 H           1.4631   -0.0600    0.0000 H       1  UNL1        0.0661
     47 H           2.3100   -0.2869    0.0000 H       1  UNL1        0.0661
@<TRIPOS>BOND
     1     1    18    1
     2     1    19    1
     3     2    18    2
     4     3     4    1
     5     3     5    1
     6     3    20    1
     7     3    21    1
     8     4     6    1
     9     4    22    1
    10     4    23    1
    11     5     7    1
    12     5    24    1
    13     5    25    1
    14     6     8    1
    15     6    26    1
    16     6    27    1
    17     7     9    1
    18     7    28    1
    19     7    29    1
    20     8    10    1
    21     8    30    1
    22     8    31    1
    23     9    11    1
    24     9    32    1
    25     9    33    1
    26    10    12    1
    27    10    34    1
    28    10    35    1
    29    11    36    1
    30    11    37    1
    31    11    38    1
    32    12    13    2
    33    12    39    1
    34    13    14    1
    35    13    40    1
    36    14    15    2
    37    14    41    1
    38    15    16    1
    39    15    42    1
    40    16    17    2
    41    16    43    1
    42    17    18    1
    43    17    44    1
    44    19    45    1
    45    19    46    1
    46    19    47    1
