@<TRIPOS>MOLECULE
IMPHY007868
 36 39 0 0 0
SMALL
GASTEIGER

@<TRIPOS>ATOM
      1 O           6.3580   -1.4884    0.0000 O.2     1  UNL1       -0.4618
      2 O          10.8076    0.2760    0.0000 O.3     1  UNL1       -0.4526
      3 O          10.8014    1.8855    0.0000 O.3     1  UNL1       -0.4526
      4 O           2.8660    0.5463    0.0000 O.3     1  UNL1       -0.4885
      5 O           4.5981    1.5463    0.0000 O.3     1  UNL1       -0.5027
      6 O           6.3465    1.5809    0.0000 O.2     1  UNL1       -0.2863
      7 O           2.8660   -1.4537    0.0000 O.3     1  UNL1       -0.5031
      8 C           7.2641    0.0671    0.0000 C.ar    1  UNL1        0.0645
      9 C           8.1282    0.5704    0.0000 C.ar    1  UNL1       -0.0076
     10 C           5.4641    0.0463    0.0000 C.ar    1  UNL1        0.1097
     11 C           6.3580    0.5809    0.0000 C.ar    1  UNL1        0.2038
     12 C           5.4641   -0.9537    0.0000 C.ar    1  UNL1        0.1456
     13 C           9.8602    0.5771    0.0000 C.ar    1  UNL1        0.1668
     14 C           8.9962    0.0738    0.0000 C.ar    1  UNL1       -0.0082
     15 C           4.5981    0.5463    0.0000 C.ar    1  UNL1        0.1768
     16 C           9.8564    1.5771    0.0000 C.ar    1  UNL1        0.1663
     17 C           8.1244    1.5704    0.0000 C.ar    1  UNL1       -0.0501
     18 C           7.2641   -0.9746    0.0000 C.ar    1  UNL1        0.1038
     19 C           8.9884    2.0737    0.0000 C.ar    1  UNL1       -0.0156
     20 C           4.5981   -1.4537    0.0000 C.ar    1  UNL1        0.0267
     21 C           3.7320    0.0463    0.0000 C.ar    1  UNL1        0.2040
     22 C           3.7320   -0.9537    0.0000 C.ar    1  UNL1        0.1657
     23 C          11.3881    1.0830    0.0000 C.3     1  UNL1        0.2332
     24 C           2.0000    0.0463    0.0000 C.3     1  UNL1        0.0791
     25 H           8.9985   -0.5462    0.0000 H       1  UNL1        0.0661
     26 H           7.5862    1.8783    0.0000 H       1  UNL1        0.0625
     27 H           7.7998   -1.2866    0.0000 H       1  UNL1        0.1037
     28 H           4.5981   -2.0737    0.0000 H       1  UNL1        0.0692
     29 H           8.9860    2.6937    0.0000 H       1  UNL1        0.0655
     30 H          11.8506    0.6700    0.0000 H       1  UNL1        0.1166
     31 H          11.8474    1.4995    0.0000 H       1  UNL1        0.1166
     32 H           4.0611    1.8563    0.0000 H       1  UNL1        0.2923
     33 H           2.8660   -2.0737    0.0000 H       1  UNL1        0.2923
     34 H           1.6900    0.5832    0.0000 H       1  UNL1        0.0660
     35 H           1.4631   -0.2637    0.0000 H       1  UNL1        0.0660
     36 H           2.3100   -0.4907    0.0000 H       1  UNL1        0.0660
@<TRIPOS>BOND
     1     1    12   ar
     2     1    18   ar
     3     2    13    1
     4     2    23    1
     5     3    16    1
     6     3    23    1
     7     4    21    1
     8     4    24    1
     9     5    15    1
    10     5    32    1
    11     6    11    2
    12     7    22    1
    13     7    33    1
    14     8     9    1
    15     8    11   ar
    16     8    18   ar
    17     9    14   ar
    18     9    17   ar
    19    10    11   ar
    20    10    12   ar
    21    10    15   ar
    22    12    20   ar
    23    13    14   ar
    24    13    16   ar
    25    14    25    1
    26    15    21   ar
    27    16    19   ar
    28    17    19   ar
    29    17    26    1
    30    18    27    1
    31    19    29    1
    32    20    22   ar
    33    20    28    1
    34    21    22   ar
    35    23    30    1
    36    23    31    1
    37    24    34    1
    38    24    35    1
    39    24    36    1
