@<TRIPOS>MOLECULE
IMPHY002762
 57 61 0 0 0
SMALL
GASTEIGER

@<TRIPOS>ATOM
      1 O           4.9386    0.9165    0.0000 O.3     1  UNL1       -0.3455
      2 O           3.7700   -1.9492    0.0000 O.3     1  UNL1       -0.4607
      3 O           6.0180    1.9861    0.0000 O.3     1  UNL1       -0.3623
      4 O           4.6520    2.6201    0.0000 O.3     1  UNL1       -0.3862
      5 O           7.3024    1.2050    0.0000 O.3     1  UNL1       -0.3887
      6 O           9.1371    0.2208    0.0000 O.3     1  UNL1       -0.3892
      7 O           2.0000   -1.9250    0.0000 O.2     1  UNL1       -0.2508
      8 C           4.6520   -0.3799    0.0000 C.3     1  UNL1        0.0432
      9 C           5.5180    0.1201    0.0000 C.3     1  UNL1        0.0350
     10 C           6.4278   -0.3679    0.0000 C.3     1  UNL1        0.0080
     11 C           3.7860    0.1201    0.0000 C.3     1  UNL1       -0.0143
     12 C           5.5180    1.1201    0.0000 C.3     1  UNL1        0.1981
     13 C           6.4521   -1.4000    0.0000 C.3     1  UNL1       -0.0267
     14 C           4.6681   -1.4214    0.0000 C.3     1  UNL1        0.1117
     15 C           5.5663   -1.9303    0.0000 C.3     1  UNL1       -0.0114
     16 C           4.5386    0.2237    0.0000 C.3     1  UNL1        0.0607
     17 C           3.7860    1.1201    0.0000 C.3     1  UNL1       -0.0087
     18 C           4.6520    1.6201    0.0000 C.3     1  UNL1        0.1119
     19 C           7.3375    0.2056    0.0000 C.3     1  UNL1        0.0871
     20 C           7.3878   -1.9302    0.0000 C.3     1  UNL1       -0.0379
     21 C           2.8760   -0.3868    0.0000 C.3     1  UNL1        0.0488
     22 C           6.4043    0.6318    0.0000 C.3     1  UNL1       -0.0564
     23 C           8.2851   -0.3027    0.0000 C.3     1  UNL1        0.0818
     24 C           8.3104   -1.3778    0.0000 C.3     1  UNL1       -0.0215
     25 C           2.9200    1.6201    0.0000 C.3     1  UNL1       -0.0596
     26 C           2.8680   -1.4284    0.0000 C.2     1  UNL1        0.3077
     27 C           7.3998   -2.9301    0.0000 C.3     1  UNL1       -0.0621
     28 H           5.9430   -0.6160    0.0000 H       1  UNL1        0.0367
     29 H           3.0499    0.5451    0.0000 H       1  UNL1        0.0317
     30 H           6.4623   -2.2500    0.0000 H       1  UNL1        0.0311
     31 H           4.6748   -2.2714    0.0000 H       1  UNL1        0.0740
     32 H           5.1729   -2.4095    0.0000 H       1  UNL1        0.0304
     33 H           5.9711   -2.4000    0.0000 H       1  UNL1        0.0304
     34 H           4.1115    0.6731    0.0000 H       1  UNL1        0.0568
     35 H           3.9866   -0.0587    0.0000 H       1  UNL1        0.0568
     36 H           3.7860    1.7401    0.0000 H       1  UNL1        0.0328
     37 H           5.1889    1.9301    0.0000 H       1  UNL1        0.0650
     38 H           7.8638    0.5333    0.0000 H       1  UNL1        0.0625
     39 H           6.8540   -2.2455    0.0000 H       1  UNL1        0.0302
     40 H           2.6714    0.1985    0.0000 H       1  UNL1        0.0380
     41 H           2.2643   -0.4881    0.0000 H       1  UNL1        0.0380
     42 H           7.0241    0.6464    0.0000 H       1  UNL1        0.0236
     43 H           6.3897    1.2516    0.0000 H       1  UNL1        0.0236
     44 H           5.7844    0.6172    0.0000 H       1  UNL1        0.0236
     45 H           8.2670    0.3170    0.0000 H       1  UNL1        0.0619
     46 H           8.5332   -1.9564    0.0000 H       1  UNL1        0.0294
     47 H           8.9186   -1.2573    0.0000 H       1  UNL1        0.0294
     48 H           3.2300    2.1570    0.0000 H       1  UNL1        0.0233
     49 H           2.3830    1.9301    0.0000 H       1  UNL1        0.0233
     50 H           2.6100    1.0831    0.0000 H       1  UNL1        0.0233
     51 H           5.7080    2.5230    0.0000 H       1  UNL1        0.2128
     52 H           6.7798   -2.9375    0.0000 H       1  UNL1        0.0233
     53 H           7.4072   -3.5500    0.0000 H       1  UNL1        0.0233
     54 H           8.0197   -2.9226    0.0000 H       1  UNL1        0.0233
     55 H           4.1151    2.9301    0.0000 H       1  UNL1        0.2100
     56 H           7.8281    1.5337    0.0000 H       1  UNL1        0.2099
     57 H           9.6824   -0.0743    0.0000 H       1  UNL1        0.2099
@<TRIPOS>BOND
     1     1    12    1
     2     1    16    1
     3     2    14    1
     4     2    26    1
     5    12     3    1
     6     3    51    1
     7    18     4    1
     8     4    55    1
     9    19     5    1
    10     5    56    1
    11    23     6    1
    12     6    57    1
    13     7    26    2
    14     8     9    1
    15     8    11    1
    16     8    14    1
    17     8    16    1
    18     9    10    1
    19     9    12    1
    20     9    28    1
    21    10    13    1
    22    10    19    1
    23    10    22    1
    24    11    17    1
    25    11    21    1
    26    11    29    1
    27    12    18    1
    28    13    15    1
    29    13    20    1
    30    13    30    1
    31    14    15    1
    32    14    31    1
    33    15    32    1
    34    15    33    1
    35    16    34    1
    36    16    35    1
    37    17    18    1
    38    17    25    1
    39    17    36    1
    40    18    37    1
    41    19    23    1
    42    19    38    1
    43    20    24    1
    44    20    27    1
    45    20    39    1
    46    21    26    1
    47    21    40    1
    48    21    41    1
    49    22    42    1
    50    22    43    1
    51    22    44    1
    52    23    24    1
    53    23    45    1
    54    24    46    1
    55    24    47    1
    56    25    48    1
    57    25    49    1
    58    25    50    1
    59    27    52    1
    60    27    53    1
    61    27    54    1
