@<TRIPOS>MOLECULE
IMPHY005301
 25 26 0 0 0
SMALL
GASTEIGER

@<TRIPOS>ATOM
      1 O           5.0371   -1.1119    0.0000 O.3     1  UNL1       -0.3719
      2 O           2.2545    0.8112    0.0000 O.3     1  UNL1       -0.3901
      3 O           5.9644   -2.0110    0.0000 O.3     1  UNL1       -0.3850
      4 O           7.7680   -0.7944    0.0000 O.3     1  UNL1       -0.3890
      5 N           5.2560    1.8026    0.0000 N.3     1  UNL1       -0.2817
      6 C           4.7782   -0.1459    0.0000 C.3     1  UNL1        0.1486
      7 C           4.5194    0.8200    0.0000 C.3     1  UNL1        0.0387
      8 C           3.1205    0.3112    0.0000 C.3     1  UNL1        0.0746
      9 C           3.3793   -0.6548    0.0000 C.3     1  UNL1        0.0198
     10 C           5.9993   -1.0116    0.0000 C.3     1  UNL1        0.1232
     11 C           6.5527    0.5089    0.0000 C.3     1  UNL1       -0.0063
     12 C           6.8283   -0.4524    0.0000 C.3     1  UNL1        0.0866
     13 H           4.2994    1.6410    0.0000 H       1  UNL1        0.0487
     14 H           2.6286   -0.0663    0.0000 H       1  UNL1        0.0610
     15 H           3.5742   -1.2433    0.0000 H       1  UNL1        0.0333
     16 H           2.7854   -0.8325    0.0000 H       1  UNL1        0.0333
     17 H           6.5415   -1.3122    0.0000 H       1  UNL1        0.0662
     18 H           6.5577    1.1288    0.0000 H       1  UNL1        0.0307
     19 H           7.1670    0.5926    0.0000 H       1  UNL1        0.0307
     20 H           5.5660    2.3395    0.0000 H       1  UNL1        0.1250
     21 H           7.2818   -0.0296    0.0000 H       1  UNL1        0.0621
     22 H           4.5987   -1.5503    0.0000 H       1  UNL1        0.2118
     23 H           1.7175    0.5012    0.0000 H       1  UNL1        0.2098
     24 H           6.4902   -2.3395    0.0000 H       1  UNL1        0.2101
     25 H           8.2430   -0.3959    0.0000 H       1  UNL1        0.2099
@<TRIPOS>BOND
     1     6     1    1
     2     1    22    1
     3     8     2    1
     4     2    23    1
     5    10     3    1
     6     3    24    1
     7    12     4    1
     8     4    25    1
     9     5     6    1
    10     5     7    1
    11     5    20    1
    12     6     9    1
    13     6    10    1
    14     7     8    1
    15     7    11    1
    16     7    13    1
    17     8     9    1
    18     8    14    1
    19     9    15    1
    20     9    16    1
    21    10    12    1
    22    10    17    1
    23    11    12    1
    24    11    18    1
    25    11    19    1
    26    12    21    1
