@<TRIPOS>MOLECULE
IMPHY013009
 37 39 0 0 0
SMALL
GASTEIGER

@<TRIPOS>ATOM
      1 O           8.1424   -0.2447    0.0000 O.3     1  UNL1       -0.4876
      2 O           5.4641    1.0600    0.0000 O.2     1  UNL1       -0.4217
      3 O           6.3301    2.5600    0.0000 O.2     1  UNL1       -0.2447
      4 O           2.0000    0.0600    0.0000 O.3     1  UNL1       -0.5033
      5 O           2.0000   -1.9400    0.0000 O.3     1  UNL1       -0.5033
      6 C           8.1424    1.3647    0.0000 C.3     1  UNL1        0.0370
      7 C           8.7260    0.5600    0.0000 C.3     1  UNL1        0.1068
      8 C           7.1962    1.0600    0.0000 C.ar    1  UNL1        0.0876
      9 C           8.9524    1.9511    0.0000 C.3     1  UNL1       -0.0521
     10 C           7.8350    2.3163    0.0000 C.3     1  UNL1       -0.0521
     11 C           7.1962    0.0600    0.0000 C.ar    1  UNL1        0.1351
     12 C           9.7260    0.5600    0.0000 C.3     1  UNL1       -0.0270
     13 C           6.3301    1.5600    0.0000 C.ar    1  UNL1        0.3446
     14 C           6.3301   -0.4400    0.0000 C.ar    1  UNL1        0.0236
     15 C           5.4641    0.0600    0.0000 C.ar    1  UNL1        0.1427
     16 C           4.5981   -0.4400    0.0000 C.ar    1  UNL1        0.0212
     17 C           3.7320    0.0600    0.0000 C.ar    1  UNL1       -0.0059
     18 C           4.5981   -1.4400    0.0000 C.ar    1  UNL1       -0.0474
     19 C           2.8660   -0.4400    0.0000 C.ar    1  UNL1        0.1589
     20 C           3.7320   -1.9400    0.0000 C.ar    1  UNL1       -0.0159
     21 C           2.8660   -1.4400    0.0000 C.ar    1  UNL1        0.1583
     22 H           9.0077    0.0077    0.0000 H       1  UNL1        0.0739
     23 H           9.3160    1.4489    0.0000 H       1  UNL1        0.0239
     24 H           9.4546    2.3147    0.0000 H       1  UNL1        0.0239
     25 H           8.5889    2.4533    0.0000 H       1  UNL1        0.0239
     26 H           8.4250    2.5069    0.0000 H       1  UNL1        0.0239
     27 H           7.6444    2.9063    0.0000 H       1  UNL1        0.0239
     28 H           7.2450    2.1258    0.0000 H       1  UNL1        0.0239
     29 H           9.7260   -0.0600    0.0000 H       1  UNL1        0.0265
     30 H          10.3460    0.5600    0.0000 H       1  UNL1        0.0265
     31 H           9.7260    1.1800    0.0000 H       1  UNL1        0.0265
     32 H           6.3301   -1.0600    0.0000 H       1  UNL1        0.0691
     33 H           3.7320    0.6800    0.0000 H       1  UNL1        0.0662
     34 H           5.1350   -1.7500    0.0000 H       1  UNL1        0.0626
     35 H           3.7320   -2.5600    0.0000 H       1  UNL1        0.0655
     36 H           2.0000    0.6800    0.0000 H       1  UNL1        0.2923
     37 H           2.0000   -2.5600    0.0000 H       1  UNL1        0.2923
@<TRIPOS>BOND
     1     1     7    1
     2     1    11    1
     3     2    13   ar
     4     2    15   ar
     5     3    13    2
     6     4    19    1
     7     4    36    1
     8     5    21    1
     9     5    37    1
    10     6     7    1
    11     6     8    1
    12     6     9    1
    13     6    10    1
    14     7    12    1
    15     7    22    1
    16     8    11   ar
    17     8    13   ar
    18     9    23    1
    19     9    24    1
    20     9    25    1
    21    10    26    1
    22    10    27    1
    23    10    28    1
    24    11    14   ar
    25    12    29    1
    26    12    30    1
    27    12    31    1
    28    14    15   ar
    29    14    32    1
    30    15    16    1
    31    16    17   ar
    32    16    18   ar
    33    17    19   ar
    34    17    33    1
    35    18    20   ar
    36    18    34    1
    37    19    21   ar
    38    20    21   ar
    39    20    35    1
