@<TRIPOS>MOLECULE
IMPHY003400
 21 21 0 0 0
SMALL
GASTEIGER

@<TRIPOS>ATOM
      1 O           2.0000    0.4907    0.0000 O.2     1  UNL1       -0.2921
      2 C           3.7601    0.7694    0.0000 C.3     1  UNL1        0.0310
      3 C           4.5691    0.1816    0.0000 C.3     1  UNL1       -0.0194
      4 C           2.9511    0.1816    0.0000 C.2     1  UNL1        0.1619
      5 C           4.2601   -0.7694    0.0000 C.2     1  UNL1       -0.0684
      6 C           4.3479    1.5784    0.0000 C.3     1  UNL1       -0.0525
      7 C           3.1723    1.5784    0.0000 C.3     1  UNL1       -0.0525
      8 C           3.2601   -0.7694    0.0000 C.2     1  UNL1       -0.0197
      9 C           4.8479   -1.5784    0.0000 C.3     1  UNL1       -0.0434
     10 H           5.1355   -0.0705    0.0000 H       1  UNL1        0.0319
     11 H           4.8791    0.7186    0.0000 H       1  UNL1        0.0319
     12 H           3.6739    1.9429    0.0000 H       1  UNL1        0.0239
     13 H           2.8079    2.0800    0.0000 H       1  UNL1        0.0239
     14 H           2.6707    1.2140    0.0000 H       1  UNL1        0.0239
     15 H           4.8494    1.2140    0.0000 H       1  UNL1        0.0239
     16 H           4.7123    2.0800    0.0000 H       1  UNL1        0.0239
     17 H           3.8463    1.9429    0.0000 H       1  UNL1        0.0239
     18 H           2.8956   -1.2710    0.0000 H       1  UNL1        0.0652
     19 H           4.3463   -1.9429    0.0000 H       1  UNL1        0.0274
     20 H           5.2123   -2.0800    0.0000 H       1  UNL1        0.0274
     21 H           5.3494   -1.2140    0.0000 H       1  UNL1        0.0274
@<TRIPOS>BOND
     1     1     4    2
     2     2     3    1
     3     2     4    1
     4     2     6    1
     5     2     7    1
     6     3     5    1
     7     3    10    1
     8     3    11    1
     9     4     8    1
    10     5     8    2
    11     5     9    1
    12     6    15    1
    13     6    16    1
    14     6    17    1
    15     7    12    1
    16     7    13    1
    17     7    14    1
    18     8    18    1
    19     9    19    1
    20     9    20    1
    21     9    21    1
