@<TRIPOS>MOLECULE
IMPHY012388
 54 56 0 0 0
SMALL
GASTEIGER

@<TRIPOS>ATOM
      1 O           5.8577   -1.7481    0.0000 O.3     1  UNL1       -0.3869
      2 O           4.2109    1.5015    0.0000 O.3     1  UNL1       -0.3879
      3 O           8.3381   -0.3393    0.0000 O.3     1  UNL1       -0.3797
      4 O           2.9758    0.5572    0.0000 O.3     1  UNL1       -0.3817
      5 O           9.1134   -1.3609    0.0000 O.2     1  UNL1       -0.2893
      6 O           6.9067    2.7108    0.0000 O.3     1  UNL1       -0.3907
      7 C           5.6352   -0.7732    0.0000 C.3     1  UNL1        0.0867
      8 C           5.4126    0.2018    0.0000 C.3     1  UNL1        0.0362
      9 C           6.5361   -1.2070    0.0000 C.3     1  UNL1        0.0438
     10 C           4.8826   -1.4933    0.0000 C.3     1  UNL1       -0.0107
     11 C           4.4221    0.5241    0.0000 C.3     1  UNL1        0.0965
     12 C           7.4371   -0.7732    0.0000 C.3     1  UNL1        0.1403
     13 C           3.6531   -0.1785    0.0000 C.3     1  UNL1        0.1132
     14 C           3.8849   -1.1940    0.0000 C.3     1  UNL1       -0.0124
     15 C           7.6596    0.2018    0.0000 C.3     1  UNL1        0.0073
     16 C           6.0361    0.9836    0.0000 C.2     1  UNL1       -0.0742
     17 C           6.6721   -2.1918    0.0000 C.2     1  UNL1       -0.0687
     18 C           4.5989   -2.4523    0.0000 C.3     1  UNL1       -0.0597
     19 C           7.0361    0.9836    0.0000 C.2     1  UNL1       -0.0448
     20 C           8.1222   -1.4935    0.0000 C.2     1  UNL1        0.1909
     21 C           7.6504   -2.3684    0.0000 C.2     1  UNL1       -0.0086
     22 C           2.6773   -0.3972    0.0000 C.2     1  UNL1       -0.0461
     23 C           7.4700    1.8846    0.0000 C.3     1  UNL1        0.0654
     24 C           8.0843   -3.2694    0.0000 C.3     1  UNL1       -0.0366
     25 C           2.3789   -1.3517    0.0000 C.3     1  UNL1       -0.0413
     26 C           2.0000    0.3384    0.0000 C.2     1  UNL1       -0.0969
     27 H           6.2413    0.0126    0.0000 H       1  UNL1        0.0397
     28 H           7.2852   -1.6089    0.0000 H       1  UNL1        0.0404
     29 H           5.4120   -1.8161    0.0000 H       1  UNL1        0.0327
     30 H           4.8823    0.9396    0.0000 H       1  UNL1        0.0632
     31 H           3.2658   -1.2265    0.0000 H       1  UNL1        0.0300
     32 H           3.8110   -1.8096    0.0000 H       1  UNL1        0.0300
     33 H           8.2182   -0.0672    0.0000 H       1  UNL1        0.0343
     34 H           8.0462    0.6865    0.0000 H       1  UNL1        0.0343
     35 H           5.7671    1.5422    0.0000 H       1  UNL1        0.0577
     36 H           6.2247   -2.6210    0.0000 H       1  UNL1        0.0580
     37 H           4.0044   -2.2764    0.0000 H       1  UNL1        0.0233
     38 H           4.4230   -3.0468    0.0000 H       1  UNL1        0.0233
     39 H           5.1934   -2.6281    0.0000 H       1  UNL1        0.0233
     40 H           5.6749   -2.3406    0.0000 H       1  UNL1        0.2102
     41 H           4.6702    1.9180    0.0000 H       1  UNL1        0.2099
     42 H           8.3844    0.2790    0.0000 H       1  UNL1        0.2108
     43 H           3.1608    1.1489    0.0000 H       1  UNL1        0.2107
     44 H           7.9734    1.5226    0.0000 H       1  UNL1        0.0604
     45 H           7.9138    2.3175    0.0000 H       1  UNL1        0.0604
     46 H           7.5257   -3.5384    0.0000 H       1  UNL1        0.0279
     47 H           8.3533   -3.8280    0.0000 H       1  UNL1        0.0279
     48 H           8.6429   -3.0004    0.0000 H       1  UNL1        0.0279
     49 H           1.7872   -1.1666    0.0000 H       1  UNL1        0.0275
     50 H           2.1939   -1.9434    0.0000 H       1  UNL1        0.0275
     51 H           2.9706   -1.5367    0.0000 H       1  UNL1        0.0275
     52 H           2.1850    0.9302    0.0000 H       1  UNL1        0.0535
     53 H           1.3950    0.2028    0.0000 H       1  UNL1        0.0535
     54 H           7.1757    3.2694    0.0000 H       1  UNL1        0.2098
@<TRIPOS>BOND
     1     7     1    1
     2     1    40    1
     3    11     2    1
     4     2    41    1
     5    12     3    1
     6     3    42    1
     7    13     4    1
     8     4    43    1
     9     5    20    2
    10     6    23    1
    11     6    54    1
    12     7     8    1
    13     7     9    1
    14     7    10    1
    15     8    11    1
    16     8    16    1
    17     8    27    1
    18     9    12    1
    19     9    17    1
    20     9    28    1
    21    10    14    1
    22    10    18    1
    23    10    29    1
    24    11    13    1
    25    11    30    1
    26    12    15    1
    27    12    20    1
    28    13    14    1
    29    13    22    1
    30    14    31    1
    31    14    32    1
    32    15    19    1
    33    15    33    1
    34    15    34    1
    35    16    19    2
    36    16    35    1
    37    17    21    2
    38    17    36    1
    39    18    37    1
    40    18    38    1
    41    18    39    1
    42    19    23    1
    43    20    21    1
    44    21    24    1
    45    22    25    1
    46    22    26    2
    47    23    44    1
    48    23    45    1
    49    24    46    1
    50    24    47    1
    51    24    48    1
    52    25    49    1
    53    25    50    1
    54    25    51    1
    55    26    52    1
    56    26    53    1
