@<TRIPOS>MOLECULE
IMPHY009755
 31 32 0 0 0
SMALL
GASTEIGER

@<TRIPOS>ATOM
      1 O           3.7320    0.5000    0.0000 O.3     1  UNL1       -0.4596
      2 O           4.5981   -1.0000    0.0000 O.2     1  UNL1       -0.2505
      3 C           2.8660   -1.0000    0.0000 C.3     1  UNL1        0.0701
      4 C           2.8660   -2.0000    0.0000 C.ar    1  UNL1       -0.0368
      5 C           4.5981    2.0000    0.0000 C.ar    1  UNL1       -0.0103
      6 C           4.5981    1.0000    0.0000 C.3     1  UNL1        0.1175
      7 C           3.7320   -0.5000    0.0000 C.2     1  UNL1        0.3118
      8 C           2.0000   -2.5000    0.0000 C.ar    1  UNL1       -0.0581
      9 C           3.7320   -2.5000    0.0000 C.ar    1  UNL1       -0.0581
     10 C           5.4641    2.5000    0.0000 C.ar    1  UNL1       -0.0554
     11 C           3.7320    2.5000    0.0000 C.ar    1  UNL1       -0.0554
     12 C           2.0000   -3.5000    0.0000 C.ar    1  UNL1       -0.0615
     13 C           3.7320   -3.5000    0.0000 C.ar    1  UNL1       -0.0615
     14 C           5.4641    3.5000    0.0000 C.ar    1  UNL1       -0.0614
     15 C           3.7320    3.5000    0.0000 C.ar    1  UNL1       -0.0614
     16 C           2.8660   -4.0000    0.0000 C.ar    1  UNL1       -0.0617
     17 C           4.5981    4.0000    0.0000 C.ar    1  UNL1       -0.0617
     18 H           2.6540   -0.4174    0.0000 H       1  UNL1        0.0426
     19 H           2.2554   -1.1077    0.0000 H       1  UNL1        0.0426
     20 H           4.8101    0.4174    0.0000 H       1  UNL1        0.0749
     21 H           5.2087    1.1077    0.0000 H       1  UNL1        0.0749
     22 H           1.4631   -2.1900    0.0000 H       1  UNL1        0.0620
     23 H           4.2690   -2.1900    0.0000 H       1  UNL1        0.0620
     24 H           6.0010    2.1900    0.0000 H       1  UNL1        0.0621
     25 H           3.1951    2.1900    0.0000 H       1  UNL1        0.0621
     26 H           1.4631   -3.8100    0.0000 H       1  UNL1        0.0618
     27 H           4.2690   -3.8100    0.0000 H       1  UNL1        0.0618
     28 H           6.0010    3.8100    0.0000 H       1  UNL1        0.0618
     29 H           3.1951    3.8100    0.0000 H       1  UNL1        0.0618
     30 H           2.8660   -4.6200    0.0000 H       1  UNL1        0.0618
     31 H           4.5981    4.6200    0.0000 H       1  UNL1        0.0618
@<TRIPOS>BOND
     1     1     6    1
     2     1     7    1
     3     2     7    2
     4     3     4    1
     5     3     7    1
     6     3    18    1
     7     3    19    1
     8     4     8   ar
     9     4     9   ar
    10     5     6    1
    11     5    10   ar
    12     5    11   ar
    13     6    20    1
    14     6    21    1
    15     8    12   ar
    16     8    22    1
    17     9    13   ar
    18     9    23    1
    19    10    14   ar
    20    10    24    1
    21    11    15   ar
    22    11    25    1
    23    12    16   ar
    24    12    26    1
    25    13    16   ar
    26    13    27    1
    27    14    17   ar
    28    14    28    1
    29    15    17   ar
    30    15    29    1
    31    16    30    1
    32    17    31    1
