@<TRIPOS>MOLECULE
IMPHY000453
 41 43 0 0 0
SMALL
GASTEIGER

@<TRIPOS>ATOM
      1 C        2552.0100 2465.0100    0.0000 C.3     1  UNL1        0.0317
      2 C        2552.0100 2575.4800    0.0000 C.2     1  UNL1       -0.0472
      3 C        2517.4700 2595.5300    0.0000 C.3     1  UNL1        0.0467
      4 C        2517.4700 2635.5300    0.0000 C.2     1  UNL1       -0.0302
      5 C        2482.8300 2655.4800    0.0000 C.2     1  UNL1       -0.0475
      6 C        2448.1900 2635.5300    0.0000 C.3     1  UNL1        0.0260
      7 C        2482.8300 2695.4800    0.0000 C.3     1  UNL1        0.0260
      8 C        2592.0100 2575.4800    0.0000 C.2     1  UNL1       -0.0511
      9 C        2612.0600 2610.1200    0.0000 C.3     1  UNL1        0.0257
     10 C        2612.0600 2540.8400    0.0000 C.3     1  UNL1        0.0257
     11 C        2517.4700 2444.9600    0.0000 C.3     1  UNL1        0.0888
     12 C        2517.4700 2484.9600    0.0000 C.3     1  UNL1        0.0353
     13 C        2482.8300 2505.0100    0.0000 C.2     1  UNL1       -0.0341
     14 C        2482.8300 2545.0100    0.0000 C.2     1  UNL1       -0.0478
     15 C        2517.4700 2564.9600    0.0000 C.3     1  UNL1        0.0260
     16 C        2448.1900 2564.9600    0.0000 C.3     1  UNL1        0.0260
     17 C        2552.0100 2424.8100    0.0000 C.3     1  UNL1        0.1366
     18 C        2552.0100 2384.5200    0.0000 C.3     1  UNL1        0.1466
     19 C        2517.4700 2364.3700    0.0000 C.2     1  UNL1        0.1838
     20 C        2482.8300 2384.5200    0.0000 C.2     1  UNL1        0.0855
     21 C        2482.8300 2424.8100    0.0000 C.2     1  UNL1        0.1770
     22 O        2448.1900 2444.8600    0.0000 O.2     1  UNL1       -0.2914
     23 C        2448.1900 2364.4700    0.0000 C.3     1  UNL1        0.2197
     24 C        2448.1900 2324.4700    0.0000 C.2     1  UNL1        0.1864
     25 C        2413.5500 2304.5200    0.0000 C.3     1  UNL1        0.0757
     26 O        2482.8300 2304.5200    0.0000 O.2     1  UNL1       -0.2928
     27 O        2413.5500 2344.5200    0.0000 O.3     1  UNL1       -0.2089
     28 C        2413.5500 2384.5200    0.0000 C.ar    1  UNL1        0.0158
     29 C        2413.5500 2424.5200    0.0000 C.ar    1  UNL1       -0.0012
     30 C        2379.0100 2444.4700    0.0000 C.ar    1  UNL1       -0.0002
     31 C        2344.2700 2424.5200    0.0000 C.ar    1  UNL1       -0.0000
     32 C        2344.2700 2384.5200    0.0000 C.ar    1  UNL1       -0.0002
     33 C        2379.0100 2364.4700    0.0000 C.ar    1  UNL1       -0.0012
     34 O        2517.4700 2324.3700    0.0000 O.2     1  UNL1       -0.2910
     35 C        2586.5500 2364.3700    0.0000 C.2     1  UNL1        0.1619
     36 O        2586.5500 2324.3700    0.0000 O.2     1  UNL1       -0.2955
     37 C        2621.0900 2384.5200    0.0000 C.3     1  UNL1        0.0852
     38 C        2621.0900 2424.8100    0.0000 C.3     1  UNL1        0.1221
     39 O        2586.5500 2444.9600    0.0000 O.3     1  UNL1       -0.3570
     40 C        2655.7300 2444.8600    0.0000 C.3     1  UNL1        0.0325
     41 C        2655.7300 2364.4700    0.0000 C.3     1  UNL1        0.0103
@<TRIPOS>BOND
     1     1     2    1
     2     1    11    1
     3     2     3    1
     4     2     8    2
     5     3     4    1
     6     4     5    2
     7     5     6    1
     8     5     7    1
     9     8     9    1
    10     8    10    1
    11    11    12    1
    12    11    17    1
    13    11    21    1
    14    12    13    1
    15    13    14    2
    16    14    15    1
    17    14    16    1
    18    17    18    1
    19    17    39    1
    20    18    19    1
    21    18    35    1
    22    19    34    1
    23    20    19    2
    24    20    23    1
    25    21    20    1
    26    21    22    2
    27    23    24    1
    28    23    27    1
    29    23    28    1
    30    24    25    1
    31    24    26    2
    32    28    29   ar
    33    28    33   ar
    34    29    30   ar
    35    30    31   ar
    36    32    31   ar
    37    33    32   ar
    38    35    36    2
    39    35    37    1
    40    37    41    1
    41    38    37    1
    42    38    40    1
    43    39    38    1
