@<TRIPOS>MOLECULE
IMPHY014502
 34 34 0 0 0
SMALL
GASTEIGER

@<TRIPOS>ATOM
      1 O           3.0000    1.7500    0.0000 O.3     1  UNL1       -0.4585
      2 O           4.7320    1.7500    0.0000 O.2     1  UNL1       -0.2511
      3 C           3.0000   -0.2500    0.0000 C.3     1  UNL1       -0.0010
      4 C           3.0000    0.7500    0.0000 C.3     1  UNL1        0.1108
      5 C           2.1340   -0.7500    0.0000 C.3     1  UNL1       -0.0429
      6 C           3.8660   -0.7500    0.0000 C.3     1  UNL1       -0.0429
      7 C           2.1340   -1.7500    0.0000 C.3     1  UNL1       -0.0316
      8 C           3.8660   -1.7500    0.0000 C.3     1  UNL1       -0.0316
      9 C           3.0000   -2.2500    0.0000 C.2     1  UNL1       -0.0766
     10 C           4.0000    0.7500    0.0000 C.3     1  UNL1       -0.0248
     11 C           2.0000    0.7500    0.0000 C.3     1  UNL1       -0.0248
     12 C           3.0000   -3.2500    0.0000 C.2     1  UNL1       -0.0994
     13 C           3.8660    2.2500    0.0000 C.2     1  UNL1        0.3045
     14 C           3.8660    3.2500    0.0000 C.3     1  UNL1        0.0333
     15 H           3.5369    0.0600    0.0000 H       1  UNL1        0.0339
     16 H           1.9219   -0.1674    0.0000 H       1  UNL1        0.0272
     17 H           1.5234   -0.8577    0.0000 H       1  UNL1        0.0272
     18 H           4.4766   -0.8577    0.0000 H       1  UNL1        0.0272
     19 H           4.0781   -0.1674    0.0000 H       1  UNL1        0.0272
     20 H           1.5234   -1.6423    0.0000 H       1  UNL1        0.0310
     21 H           1.9219   -2.3326    0.0000 H       1  UNL1        0.0310
     22 H           4.0781   -2.3326    0.0000 H       1  UNL1        0.0310
     23 H           4.4766   -1.6423    0.0000 H       1  UNL1        0.0310
     24 H           4.0000    0.1300    0.0000 H       1  UNL1        0.0268
     25 H           4.6200    0.7500    0.0000 H       1  UNL1        0.0268
     26 H           4.0000    1.3700    0.0000 H       1  UNL1        0.0268
     27 H           2.0000    1.3700    0.0000 H       1  UNL1        0.0268
     28 H           1.3800    0.7500    0.0000 H       1  UNL1        0.0268
     29 H           2.0000    0.1300    0.0000 H       1  UNL1        0.0268
     30 H           2.4631   -3.5600    0.0000 H       1  UNL1        0.0534
     31 H           3.5369   -3.5600    0.0000 H       1  UNL1        0.0534
     32 H           4.4860    3.2500    0.0000 H       1  UNL1        0.0342
     33 H           3.8660    3.8700    0.0000 H       1  UNL1        0.0342
     34 H           3.2460    3.2500    0.0000 H       1  UNL1        0.0342
@<TRIPOS>BOND
     1     1     4    1
     2     1    13    1
     3     2    13    2
     4     3     4    1
     5     3     5    1
     6     3     6    1
     7     3    15    1
     8     4    10    1
     9     4    11    1
    10     5     7    1
    11     5    16    1
    12     5    17    1
    13     6     8    1
    14     6    18    1
    15     6    19    1
    16     7     9    1
    17     7    20    1
    18     7    21    1
    19     8     9    1
    20     8    22    1
    21     8    23    1
    22     9    12    2
    23    10    24    1
    24    10    25    1
    25    10    26    1
    26    11    27    1
    27    11    28    1
    28    11    29    1
    29    12    30    1
    30    12    31    1
    31    13    14    1
    32    14    32    1
    33    14    33    1
    34    14    34    1
