@<TRIPOS>MOLECULE
IMPHY000608
 60 62 0 0 0
SMALL
GASTEIGER

@<TRIPOS>ATOM
      1 O           4.2690   -2.2500    0.0000 O.3     1  UNL1       -0.3405
      2 O           6.0010   -2.2500    0.0000 O.3     1  UNL1       -0.3416
      3 O           4.2690   -5.2500    0.0000 O.3     1  UNL1       -0.3864
      4 O           2.5369   -4.2500    0.0000 O.3     1  UNL1       -0.3865
      5 O           6.0010   -4.2500    0.0000 O.3     1  UNL1       -0.3841
      6 O           2.5369   -1.2500    0.0000 O.3     1  UNL1       -0.3924
      7 O           7.7331   -1.2500    0.0000 O.3     1  UNL1       -0.3846
      8 O           8.5991    2.2500    0.0000 O.3     1  UNL1       -0.5033
      9 O           6.8671    3.2500    0.0000 O.3     1  UNL1       -0.5033
     10 O           6.8671    4.2500    0.0000 O.3     1  UNL1       -0.5033
     11 O           5.1350    5.2500    0.0000 O.3     1  UNL1       -0.5033
     12 C           4.2690   -4.2500    0.0000 C.3     1  UNL1        0.1141
     13 C           3.4030   -3.7500    0.0000 C.3     1  UNL1        0.1119
     14 C           5.1350   -3.7500    0.0000 C.3     1  UNL1        0.1341
     15 C           3.4030   -2.7500    0.0000 C.3     1  UNL1        0.1130
     16 C           5.1350   -2.7500    0.0000 C.3     1  UNL1        0.1884
     17 C           2.5369   -2.2500    0.0000 C.3     1  UNL1        0.0730
     18 C           6.0010   -1.2500    0.0000 C.3     1  UNL1        0.1024
     19 C           6.8671   -0.7500    0.0000 C.3     1  UNL1        0.1073
     20 C           5.1350   -0.7500    0.0000 C.3     1  UNL1        0.0386
     21 C           6.8671    0.2500    0.0000 C.ar    1  UNL1       -0.0130
     22 C           7.7331    0.7500    0.0000 C.ar    1  UNL1       -0.0108
     23 C           6.0010    0.7500    0.0000 C.ar    1  UNL1       -0.0524
     24 C           5.1350    0.2500    0.0000 C.1     1  UNL1       -0.0943
     25 C           7.7331    1.7500    0.0000 C.ar    1  UNL1        0.1586
     26 C           6.0010    1.7500    0.0000 C.ar    1  UNL1       -0.0162
     27 C           6.8671    2.2500    0.0000 C.ar    1  UNL1        0.1582
     28 C           5.1350    1.2500    0.0000 C.1     1  UNL1       -0.0661
     29 C           5.1350    2.2500    0.0000 C.ar    1  UNL1        0.0286
     30 C           6.0010    2.7500    0.0000 C.ar    1  UNL1       -0.0011
     31 C           4.2690    2.7500    0.0000 C.ar    1  UNL1       -0.0426
     32 C           6.0010    3.7500    0.0000 C.ar    1  UNL1        0.1594
     33 C           4.2690    3.7500    0.0000 C.ar    1  UNL1       -0.0154
     34 C           5.1350    4.2500    0.0000 C.ar    1  UNL1        0.1583
     35 H           4.8059   -4.5600    0.0000 H       1  UNL1        0.0648
     36 H           3.4030   -4.3700    0.0000 H       1  UNL1        0.0647
     37 H           5.6720   -3.4400    0.0000 H       1  UNL1        0.0671
     38 H           3.4030   -2.1300    0.0000 H       1  UNL1        0.0647
     39 H           5.1350   -2.1300    0.0000 H       1  UNL1        0.0938
     40 H           1.9264   -2.1423    0.0000 H       1  UNL1        0.0584
     41 H           2.3249   -2.8326    0.0000 H       1  UNL1        0.0584
     42 H           6.5380   -1.5600    0.0000 H       1  UNL1        0.0636
     43 H           7.4040   -0.4400    0.0000 H       1  UNL1        0.0670
     44 H           3.7320   -5.5600    0.0000 H       1  UNL1        0.2100
     45 H           2.0000   -3.9400    0.0000 H       1  UNL1        0.2100
     46 H           6.0010   -4.8700    0.0000 H       1  UNL1        0.2101
     47 H           4.5244   -0.6423    0.0000 H       1  UNL1        0.0424
     48 H           4.9230   -1.3326    0.0000 H       1  UNL1        0.0424
     49 H           2.0000   -0.9400    0.0000 H       1  UNL1        0.2095
     50 H           8.2700   -0.9400    0.0000 H       1  UNL1        0.2103
     51 H           8.2700    0.4400    0.0000 H       1  UNL1        0.0659
     52 H           5.4641    0.4400    0.0000 H       1  UNL1        0.0622
     53 H           5.4641    2.0600    0.0000 H       1  UNL1        0.0655
     54 H           9.1360    1.9400    0.0000 H       1  UNL1        0.2923
     55 H           7.4040    3.5600    0.0000 H       1  UNL1        0.2923
     56 H           6.5380    2.4400    0.0000 H       1  UNL1        0.0667
     57 H           3.7320    2.4400    0.0000 H       1  UNL1        0.0631
     58 H           3.7320    4.0600    0.0000 H       1  UNL1        0.0656
     59 H           6.8671    4.8700    0.0000 H       1  UNL1        0.2923
     60 H           4.5981    5.5600    0.0000 H       1  UNL1        0.2923
@<TRIPOS>BOND
     1     1    15    1
     2     1    16    1
     3    16     2    1
     4    18     2    1
     5    12     3    1
     6     3    44    1
     7    13     4    1
     8     4    45    1
     9    14     5    1
    10     5    46    1
    11     6    17    1
    12     6    49    1
    13    19     7    1
    14     7    50    1
    15     8    25    1
    16     8    54    1
    17     9    27    1
    18     9    55    1
    19    10    32    1
    20    10    59    1
    21    11    34    1
    22    11    60    1
    23    12    13    1
    24    12    14    1
    25    12    35    1
    26    13    15    1
    27    13    36    1
    28    14    16    1
    29    14    37    1
    30    15    17    1
    31    15    38    1
    32    16    39    1
    33    17    40    1
    34    17    41    1
    35    18    19    1
    36    18    20    1
    37    18    42    1
    38    19    21    1
    39    19    43    1
    40    20    24    1
    41    20    47    1
    42    20    48    1
    43    21    22   ar
    44    21    23   ar
    45    22    25   ar
    46    22    51    1
    47    23    26   ar
    48    23    52    1
    49    24    28    3
    50    25    27   ar
    51    26    27   ar
    52    26    53    1
    53    28    29    1
    54    29    30   ar
    55    29    31   ar
    56    30    32   ar
    57    30    56    1
    58    31    33   ar
    59    31    57    1
    60    32    34   ar
    61    33    34   ar
    62    33    58    1
