@<TRIPOS>MOLECULE
IMPHY009669
 35 35 0 0 0
SMALL
GASTEIGER

@<TRIPOS>ATOM
      1 O           8.0995   -1.3412    0.0000 O.2     1  UNL1       -0.4567
      2 O           6.1316   -2.0406    0.0000 O.3     1  UNL1       -0.3722
      3 O          11.1380    1.2540    0.0000 O.3     1  UNL1       -0.4649
      4 O           9.4438    0.8939    0.0000 O.2     1  UNL1       -0.2456
      5 C           7.2905   -0.7534    0.0000 C.ar    1  UNL1        0.1462
      6 C           6.3395   -1.0624    0.0000 C.3     1  UNL1        0.1734
      7 C           8.9086   -0.7534    0.0000 C.ar    1  UNL1        0.1285
      8 C           7.5995    0.1977    0.0000 C.ar    1  UNL1       -0.0165
      9 C           8.5995    0.1977    0.0000 C.ar    1  UNL1       -0.0161
     10 C           9.8596   -1.0624    0.0000 C.2     1  UNL1       -0.0126
     11 C           5.5963   -0.3933    0.0000 C.1     1  UNL1       -0.0583
     12 C           2.9511   -0.3422    0.0000 C.3     1  UNL1       -0.0367
     13 C          10.6028   -0.3933    0.0000 C.2     1  UNL1        0.0260
     14 C           3.1590    0.6360    0.0000 C.2     1  UNL1       -0.0761
     15 C           2.0000   -0.6512    0.0000 C.3     1  UNL1       -0.0618
     16 C           4.1100    0.9450    0.0000 C.2     1  UNL1       -0.0154
     17 C           4.8532    0.2759    0.0000 C.1     1  UNL1       -0.0714
     18 C          10.3948    0.5849    0.0000 C.2     1  UNL1        0.3318
     19 C          10.9301    2.2322    0.0000 C.3     1  UNL1        0.0820
     20 H           6.8002   -1.4773    0.0000 H       1  UNL1        0.0815
     21 H           7.2351    0.6993    0.0000 H       1  UNL1        0.0653
     22 H           8.9640    0.6993    0.0000 H       1  UNL1        0.0655
     23 H           9.9885   -1.6689    0.0000 H       1  UNL1        0.0656
     24 H           3.0373   -0.9561    0.0000 H       1  UNL1        0.0305
     25 H           3.5707   -0.3638    0.0000 H       1  UNL1        0.0305
     26 H          11.1924   -0.5849    0.0000 H       1  UNL1        0.0690
     27 H           5.5419   -2.2322    0.0000 H       1  UNL1        0.2116
     28 H           2.6982    1.0508    0.0000 H       1  UNL1        0.0578
     29 H           1.8084   -0.0615    0.0000 H       1  UNL1        0.0233
     30 H           1.4103   -0.8428    0.0000 H       1  UNL1        0.0233
     31 H           2.1916   -1.2408    0.0000 H       1  UNL1        0.0233
     32 H           4.2389    1.5514    0.0000 H       1  UNL1        0.0709
     33 H          11.5365    2.3610    0.0000 H       1  UNL1        0.0661
     34 H          10.8012    2.8386    0.0000 H       1  UNL1        0.0661
     35 H          10.3236    2.1032    0.0000 H       1  UNL1        0.0661
@<TRIPOS>BOND
     1     1     5   ar
     2     1     7   ar
     3     2     6    1
     4     2    27    1
     5     3    18    1
     6     3    19    1
     7     4    18    2
     8     5     6    1
     9     5     8   ar
    10     6    11    1
    11     6    20    1
    12     7     9   ar
    13     7    10    1
    14     8     9   ar
    15     8    21    1
    16     9    22    1
    17    10    13    2
    18    10    23    1
    19    11    17    3
    20    12    14    1
    21    12    15    1
    22    12    24    1
    23    12    25    1
    24    13    18    1
    25    13    26    1
    26    14    16    2
    27    14    28    1
    28    15    29    1
    29    15    30    1
    30    15    31    1
    31    16    17    1
    32    16    32    1
    33    19    33    1
    34    19    34    1
    35    19    35    1
