@<TRIPOS>MOLECULE
IMPHY015928
 32 31 0 0 0
SMALL
GASTEIGER

@<TRIPOS>ATOM
      1 SE          4.5981   -0.0950    0.0000 Se      1  UNL1        0.0000
      2 SE          5.4641    0.4050    0.0000 Se      1  UNL1        0.0000
      3 O           2.8660   -4.0950    0.0000 O.3     1  UNL1        0.0000
      4 O           8.0622    2.9050    0.0000 O.3     1  UNL1        0.0000
      5 OXT         2.0000   -2.5950    0.0000 O.2     1  UNL1        0.0000
      6 OXT         7.1962    4.4050    0.0000 O.2     1  UNL1        0.0000
      7 N           4.5981   -3.0950    0.0000 N.3     1  UNL1        0.0000
      8 N           5.4641    3.4050    0.0000 N.3     1  UNL1        0.0000
      9 C           3.7320   -1.5950    0.0000 C.3     1  UNL1        0.0000
     10 C           6.3301    1.9050    0.0000 C.3     1  UNL1        0.0000
     11 CA          3.7320   -2.5950    0.0000 C.3     1  UNL1        0.0000
     12 CA          6.3301    2.9050    0.0000 C.3     1  UNL1        0.0000
     13 C           4.5981   -1.0950    0.0000 C.3     1  UNL1        0.0000
     14 C           5.4641    1.4050    0.0000 C.3     1  UNL1        0.0000
     15 C           2.8660   -3.0950    0.0000 C.2     1  UNL1        0.0000
     16 C           7.1962    3.4050    0.0000 C.2     1  UNL1        0.0000
     17 H           3.5200   -1.0124    0.0000 H       1  UNL1        0.0000
     18 H           3.1215   -1.7027    0.0000 H       1  UNL1        0.0000
     19 H           6.5422    1.3224    0.0000 H       1  UNL1        0.0000
     20 H           6.9407    2.0127    0.0000 H       1  UNL1        0.0000
     21 HA          3.7320   -3.2150    0.0000 H       1  UNL1        0.0000
     22 HA          5.7932    2.5950    0.0000 H       1  UNL1        0.0000
     23 H           4.8101   -1.6776    0.0000 H       1  UNL1        0.0000
     24 H           5.2087   -0.9873    0.0000 H       1  UNL1        0.0000
     25 H           5.2520    1.9876    0.0000 H       1  UNL1        0.0000
     26 H           4.8535    1.2973    0.0000 H       1  UNL1        0.0000
     27 H1          4.5981   -3.7150    0.0000 H       1  UNL1        0.0000
     28 H2          5.1350   -2.7850    0.0000 H       1  UNL1        0.0000
     29 H1          4.9272    3.0950    0.0000 H       1  UNL1        0.0000
     30 H2          5.4641    4.0250    0.0000 H       1  UNL1        0.0000
     31 H           2.3291   -4.4050    0.0000 H       1  UNL1        0.0000
     32 H           8.5991    3.2150    0.0000 H       1  UNL1        0.0000
@<TRIPOS>BOND
     1     1     2    1
     2     1    13    1
     3     2    14    1
     4     3    15    1
     5     3    31    1
     6     4    16    1
     7     4    32    1
     8     5    15    2
     9     6    16    2
    10     7    11    1
    11     7    27    1
    12     7    28    1
    13     8    12    1
    14     8    29    1
    15     8    30    1
    16     9    11    1
    17     9    13    1
    18     9    17    1
    19     9    18    1
    20    10    12    1
    21    10    14    1
    22    10    19    1
    23    10    20    1
    24    11    15    1
    25    11    21    1
    26    12    16    1
    27    12    22    1
    28    13    23    1
    29    13    24    1
    30    14    25    1
    31    14    26    1
