@<TRIPOS>MOLECULE
IMPHY010083
 16 16 0 0 0
SMALL
GASTEIGER

@<TRIPOS>ATOM
      1 O           2.8660   -2.4050    0.0000 O.3     1  UNL1       -0.5068
      2 O           3.7320    2.0950    0.0000 O.3     1  UNL1       -0.4771
      3 O           2.0000    2.0950    0.0000 O.2     1  UNL1       -0.2451
      4 C           2.8660    0.5950    0.0000 C.ar    1  UNL1        0.0591
      5 C           3.7320    0.0950    0.0000 C.ar    1  UNL1       -0.0443
      6 C           2.0000    0.0950    0.0000 C.ar    1  UNL1       -0.0443
      7 C           2.8660   -1.4050    0.0000 C.ar    1  UNL1        0.1169
      8 C           3.7320   -0.9050    0.0000 C.ar    1  UNL1       -0.0194
      9 C           2.0000   -0.9050    0.0000 C.ar    1  UNL1       -0.0194
     10 C           2.8660    1.5950    0.0000 C.2     1  UNL1        0.3368
     11 H           4.2690    0.4050    0.0000 H       1  UNL1        0.0627
     12 H           1.4631    0.4050    0.0000 H       1  UNL1        0.0627
     13 H           4.2690   -1.2150    0.0000 H       1  UNL1        0.0654
     14 H           1.4631   -1.2150    0.0000 H       1  UNL1        0.0654
     15 H           2.3291   -2.7150    0.0000 H       1  UNL1        0.2921
     16 H           3.7320    2.7150    0.0000 H       1  UNL1        0.2954
@<TRIPOS>BOND
     1     1     7    1
     2     1    15    1
     3     2    10    1
     4     2    16    1
     5     3    10    2
     6     4     5   ar
     7     4     6   ar
     8     4    10    1
     9     5     8   ar
    10     5    11    1
    11     6     9   ar
    12     6    12    1
    13     7     8   ar
    14     7     9   ar
    15     8    13    1
    16     9    14    1
