@<TRIPOS>MOLECULE
IMPHY002592
 58 59 0 0 0
SMALL
GASTEIGER

@<TRIPOS>ATOM
      1 O           4.2690   -3.9050    0.0000 O.3     1  UNL1       -0.5064
      2 O           2.5369   -0.9050    0.0000 O.3     1  UNL1       -0.5061
      3 O           4.2690    2.0950    0.0000 O.2     1  UNL1       -0.2872
      4 O           6.8671    0.5950    0.0000 O.3     1  UNL1       -0.5059
      5 O           8.5991    3.5950    0.0000 O.3     1  UNL1       -0.5066
      6 C           8.5991   -2.4050    0.0000 C.3     1  UNL1       -0.0286
      7 C           7.7331   -2.9050    0.0000 C.2     1  UNL1       -0.0759
      8 C           6.0010   -2.9050    0.0000 C.3     1  UNL1       -0.0058
      9 C           9.4651   -2.9050    0.0000 C.3     1  UNL1       -0.0308
     10 C           5.1350   -2.4050    0.0000 C.ar    1  UNL1       -0.0014
     11 C           6.8671   -2.4050    0.0000 C.2     1  UNL1       -0.0806
     12 C           5.1350   -1.4050    0.0000 C.ar    1  UNL1       -0.0442
     13 C           7.7331   -3.9050    0.0000 C.3     1  UNL1       -0.0438
     14 C           4.2690   -2.9050    0.0000 C.ar    1  UNL1        0.1238
     15 C           4.2690   -0.9050    0.0000 C.ar    1  UNL1        0.0170
     16 C          10.3312   -2.4050    0.0000 C.2     1  UNL1       -0.0850
     17 C           3.4030   -1.4050    0.0000 C.ar    1  UNL1        0.1274
     18 C           3.4030   -2.4050    0.0000 C.ar    1  UNL1        0.0222
     19 C          11.1972   -2.9050    0.0000 C.2     1  UNL1       -0.0796
     20 C           4.2690    0.0950    0.0000 C.2     1  UNL1       -0.0475
     21 C          12.0632   -2.4050    0.0000 C.3     1  UNL1       -0.0440
     22 C          11.1972   -3.9050    0.0000 C.3     1  UNL1       -0.0440
     23 C           5.1350    0.5950    0.0000 C.2     1  UNL1       -0.0136
     24 C           5.1350    1.5950    0.0000 C.2     1  UNL1        0.1896
     25 C           6.0010    2.0950    0.0000 C.ar    1  UNL1        0.0632
     26 C           6.8671    1.5950    0.0000 C.ar    1  UNL1        0.1311
     27 C           6.0010    3.0950    0.0000 C.ar    1  UNL1       -0.0440
     28 C           7.7331    2.0950    0.0000 C.ar    1  UNL1        0.0220
     29 C           6.8671    3.5950    0.0000 C.ar    1  UNL1       -0.0193
     30 C           7.7331    3.0950    0.0000 C.ar    1  UNL1        0.1204
     31 H           8.9976   -1.9300    0.0000 H       1  UNL1        0.0313
     32 H           8.2006   -1.9300    0.0000 H       1  UNL1        0.0313
     33 H           5.6025   -3.3800    0.0000 H       1  UNL1        0.0357
     34 H           6.3996   -3.3800    0.0000 H       1  UNL1        0.0357
     35 H           9.0666   -3.3800    0.0000 H       1  UNL1        0.0310
     36 H           9.8637   -3.3800    0.0000 H       1  UNL1        0.0310
     37 H           6.8671   -1.7850    0.0000 H       1  UNL1        0.0575
     38 H           5.6720   -1.0950    0.0000 H       1  UNL1        0.0629
     39 H           7.1131   -3.9050    0.0000 H       1  UNL1        0.0274
     40 H           7.7331   -4.5250    0.0000 H       1  UNL1        0.0274
     41 H           8.3531   -3.9050    0.0000 H       1  UNL1        0.0274
     42 H          10.3312   -1.7850    0.0000 H       1  UNL1        0.0572
     43 H           2.8660   -2.7150    0.0000 H       1  UNL1        0.0691
     44 H           3.7320    0.4050    0.0000 H       1  UNL1        0.0626
     45 H          12.3732   -2.9419    0.0000 H       1  UNL1        0.0274
     46 H          12.6002   -2.0950    0.0000 H       1  UNL1        0.0274
     47 H          10.5772   -3.9050    0.0000 H       1  UNL1        0.0274
     48 H          11.1972   -4.5250    0.0000 H       1  UNL1        0.0274
     49 H          11.8172   -3.9050    0.0000 H       1  UNL1        0.0274
     50 H          11.7532   -1.8681    0.0000 H       1  UNL1        0.0274
     51 H           5.6720    0.2850    0.0000 H       1  UNL1        0.0656
     52 H           3.7320   -4.2150    0.0000 H       1  UNL1        0.2921
     53 H           2.0000   -1.2150    0.0000 H       1  UNL1        0.2922
     54 H           5.4641    3.4050    0.0000 H       1  UNL1        0.0627
     55 H           8.2700    1.7850    0.0000 H       1  UNL1        0.0691
     56 H           6.8671    4.2150    0.0000 H       1  UNL1        0.0654
     57 H           7.4040    0.2850    0.0000 H       1  UNL1        0.2922
     58 H           8.5991    4.2150    0.0000 H       1  UNL1        0.2921
@<TRIPOS>BOND
     1     1    14    1
     2     1    52    1
     3     2    17    1
     4     2    53    1
     5     3    24    2
     6     4    26    1
     7     4    57    1
     8     5    30    1
     9     5    58    1
    10     6     7    1
    11     6     9    1
    12     6    31    1
    13     6    32    1
    14     7    11    2
    15     7    13    1
    16     8    10    1
    17     8    11    1
    18     8    33    1
    19     8    34    1
    20     9    16    1
    21     9    35    1
    22     9    36    1
    23    10    12   ar
    24    10    14   ar
    25    11    37    1
    26    12    15   ar
    27    12    38    1
    28    13    39    1
    29    13    40    1
    30    13    41    1
    31    14    18   ar
    32    15    17   ar
    33    15    20    1
    34    16    19    2
    35    16    42    1
    36    17    18   ar
    37    18    43    1
    38    19    21    1
    39    19    22    1
    40    20    23    2
    41    20    44    1
    42    21    45    1
    43    21    46    1
    44    21    50    1
    45    22    47    1
    46    22    48    1
    47    22    49    1
    48    23    24    1
    49    23    51    1
    50    24    25    1
    51    25    26   ar
    52    25    27   ar
    53    26    28   ar
    54    27    29   ar
    55    27    54    1
    56    28    30   ar
    57    28    55    1
    58    29    30   ar
    59    29    56    1
