@<TRIPOS>MOLECULE
IMPHY003863
 35 37 0 0 0
SMALL
GASTEIGER

@<TRIPOS>ATOM
      1 O           5.5301    0.0173    0.0000 O.3     1  UNL1       -0.4876
      2 O           7.3424   -2.7874    0.0000 O.2     1  UNL1       -0.4627
      3 O           3.7702   -3.0173    0.0000 O.2     1  UNL1       -0.4219
      4 O           5.5301    2.0173    0.0000 O.3     1  UNL1       -0.3841
      5 O           2.0000   -3.0068    0.0000 O.2     1  UNL1       -0.2452
      6 C           5.5301   -0.9827    0.0000 C.ar    1  UNL1        0.1420
      7 C           6.3961   -1.4827    0.0000 C.ar    1  UNL1        0.0625
      8 C           4.6641   -1.4827    0.0000 C.ar    1  UNL1        0.0600
      9 C           6.3961   -2.4827    0.0000 C.ar    1  UNL1        0.1418
     10 C           4.6641   -2.4827    0.0000 C.ar    1  UNL1        0.1461
     11 C           6.3961    0.5173    0.0000 C.3     1  UNL1        0.1192
     12 C           6.3961    1.5173    0.0000 C.3     1  UNL1        0.1097
     13 C           5.5301   -2.9827    0.0000 C.ar    1  UNL1        0.0245
     14 C           7.3424   -1.1779    0.0000 C.ar    1  UNL1       -0.0126
     15 C           3.7702   -0.9480    0.0000 C.ar    1  UNL1       -0.0408
     16 C           7.2622    2.0173    0.0000 C.2     1  UNL1       -0.0484
     17 C           7.9260   -1.9827    0.0000 C.ar    1  UNL1        0.0933
     18 C           2.8641   -1.4619    0.0000 C.ar    1  UNL1        0.0237
     19 C           2.8641   -2.5035    0.0000 C.ar    1  UNL1        0.3372
     20 C           7.2622    3.0173    0.0000 C.3     1  UNL1       -0.0415
     21 C           8.1282    1.5173    0.0000 C.2     1  UNL1       -0.0972
     22 H           6.6082   -0.0653    0.0000 H       1  UNL1        0.0726
     23 H           7.0067    0.6250    0.0000 H       1  UNL1        0.0726
     24 H           5.8592    1.2073    0.0000 H       1  UNL1        0.0674
     25 H           5.5301   -3.6027    0.0000 H       1  UNL1        0.0692
     26 H           7.5350   -0.5886    0.0000 H       1  UNL1        0.0656
     27 H           3.7773   -0.3280    0.0000 H       1  UNL1        0.0628
     28 H           8.5460   -1.9827    0.0000 H       1  UNL1        0.1030
     29 H           2.3284   -1.1498    0.0000 H       1  UNL1        0.0689
     30 H           7.8822    3.0173    0.0000 H       1  UNL1        0.0275
     31 H           7.2622    3.6373    0.0000 H       1  UNL1        0.0275
     32 H           6.6422    3.0173    0.0000 H       1  UNL1        0.0275
     33 H           5.5301    2.6373    0.0000 H       1  UNL1        0.2104
     34 H           8.1282    0.8973    0.0000 H       1  UNL1        0.0535
     35 H           8.6651    1.8273    0.0000 H       1  UNL1        0.0535
@<TRIPOS>BOND
     1     1     6    1
     2     1    11    1
     3     2     9   ar
     4     2    17   ar
     5     3    10   ar
     6     3    19   ar
     7    12     4    1
     8     4    33    1
     9     5    19    2
    10     6     7   ar
    11     6     8   ar
    12     7     9   ar
    13     7    14   ar
    14     8    10   ar
    15     8    15   ar
    16     9    13   ar
    17    10    13   ar
    18    11    12    1
    19    11    22    1
    20    11    23    1
    21    12    16    1
    22    12    24    1
    23    13    25    1
    24    14    17   ar
    25    14    26    1
    26    15    18   ar
    27    15    27    1
    28    16    20    1
    29    16    21    2
    30    17    28    1
    31    18    19   ar
    32    18    29    1
    33    20    30    1
    34    20    31    1
    35    20    32    1
    36    21    34    1
    37    21    35    1
