@<TRIPOS>MOLECULE
IMPHY001202
 56 59 0 0 0
SMALL
GASTEIGER

@<TRIPOS>ATOM
      1 O           9.4966    1.7276    0.0000 O.3     1  UNL1       -0.4877
      2 O           6.0682    1.5060    0.0000 O.2     1  UNL1       -0.4502
      3 O           7.8167   -1.5286    0.0000 O.3     1  UNL1       -0.5058
      4 O           6.0682   -1.4940    0.0000 O.2     1  UNL1       -0.2863
      5 O           4.3198    2.5406    0.0000 O.3     1  UNL1       -0.4885
      6 O           2.5381    1.5302    0.0000 O.3     1  UNL1       -0.5032
      7 C           8.0383    2.5546    0.0000 C.3     1  UNL1        0.0337
      8 C           9.0674    2.6699    0.0000 C.3     1  UNL1        0.1067
      9 C           7.8282    1.5407    0.0000 C.ar    1  UNL1        0.0465
     10 C           8.7343    1.0268    0.0000 C.ar    1  UNL1        0.1317
     11 C           7.9278    3.5485    0.0000 C.3     1  UNL1       -0.0522
     12 C           7.0590    2.7567    0.0000 C.3     1  UNL1       -0.0522
     13 C           6.9343    1.0060    0.0000 C.ar    1  UNL1        0.1502
     14 C           9.5607    3.5397    0.0000 C.3     1  UNL1       -0.0270
     15 C           6.9343    0.0060    0.0000 C.ar    1  UNL1        0.1064
     16 C           8.7343   -0.0148    0.0000 C.ar    1  UNL1        0.0228
     17 C           7.8282   -0.5286    0.0000 C.ar    1  UNL1        0.1347
     18 C           6.0682   -0.4940    0.0000 C.ar    1  UNL1        0.2041
     19 C           5.2022    0.0060    0.0000 C.ar    1  UNL1        0.0721
     20 C           5.2022    1.0060    0.0000 C.ar    1  UNL1        0.1846
     21 C           4.3083   -0.5286    0.0000 C.ar    1  UNL1       -0.0256
     22 C           4.3083    1.5407    0.0000 C.ar    1  UNL1        0.2047
     23 C           4.3198   -1.5286    0.0000 C.3     1  UNL1       -0.0083
     24 C           3.4022   -0.0148    0.0000 C.ar    1  UNL1       -0.0121
     25 C           3.4022    1.0268    0.0000 C.ar    1  UNL1        0.1625
     26 C           3.4597   -2.0386    0.0000 C.2     1  UNL1       -0.0810
     27 C           3.4712   -3.0385    0.0000 C.2     1  UNL1       -0.0793
     28 C           3.4597    3.0506    0.0000 C.3     1  UNL1        0.0791
     29 C           2.6110   -3.5485    0.0000 C.3     1  UNL1       -0.0440
     30 C           4.3430   -3.5284    0.0000 C.3     1  UNL1       -0.0440
     31 H           9.6867    2.6425    0.0000 H       1  UNL1        0.0739
     32 H           8.5441    3.6170    0.0000 H       1  UNL1        0.0239
     33 H           7.8594    4.1647    0.0000 H       1  UNL1        0.0239
     34 H           7.3116    3.4800    0.0000 H       1  UNL1        0.0239
     35 H           7.1842    3.3639    0.0000 H       1  UNL1        0.0239
     36 H           6.4517    2.8819    0.0000 H       1  UNL1        0.0239
     37 H           6.9337    2.1494    0.0000 H       1  UNL1        0.0239
     38 H          10.1000    3.2339    0.0000 H       1  UNL1        0.0265
     39 H           9.8665    4.0790    0.0000 H       1  UNL1        0.0265
     40 H           9.0214    3.8456    0.0000 H       1  UNL1        0.0265
     41 H           9.2700   -0.3269    0.0000 H       1  UNL1        0.0691
     42 H           4.5386   -2.1087    0.0000 H       1  UNL1        0.0356
     43 H           4.9291   -1.4139    0.0000 H       1  UNL1        0.0356
     44 H           2.8665   -0.3269    0.0000 H       1  UNL1        0.0658
     45 H           8.3500   -1.8448    0.0000 H       1  UNL1        0.2922
     46 H           2.9192   -1.7348    0.0000 H       1  UNL1        0.0575
     47 H           2.0000    1.2222    0.0000 H       1  UNL1        0.2923
     48 H           3.7758    3.5839    0.0000 H       1  UNL1        0.0660
     49 H           2.9263    3.3668    0.0000 H       1  UNL1        0.0660
     50 H           3.1435    2.5173    0.0000 H       1  UNL1        0.0660
     51 H           4.0392   -4.0689    0.0000 H       1  UNL1        0.0274
     52 H           4.8835   -3.8322    0.0000 H       1  UNL1        0.0274
     53 H           4.6468   -2.9880    0.0000 H       1  UNL1        0.0274
     54 H           2.2948   -3.0152    0.0000 H       1  UNL1        0.0274
     55 H           2.0777   -3.8647    0.0000 H       1  UNL1        0.0274
     56 H           2.9272   -4.0818    0.0000 H       1  UNL1        0.0274
@<TRIPOS>BOND
     1     1     8    1
     2     1    10    1
     3     2    13   ar
     4     2    20   ar
     5     3    17    1
     6     3    45    1
     7     4    18    2
     8     5    22    1
     9     5    28    1
    10     6    25    1
    11     6    47    1
    12     7     8    1
    13     7     9    1
    14     7    11    1
    15     7    12    1
    16     8    14    1
    17     8    31    1
    18     9    10   ar
    19     9    13   ar
    20    10    16   ar
    21    11    32    1
    22    11    33    1
    23    11    34    1
    24    12    35    1
    25    12    36    1
    26    12    37    1
    27    13    15   ar
    28    14    38    1
    29    14    39    1
    30    14    40    1
    31    15    17   ar
    32    15    18   ar
    33    16    17   ar
    34    16    41    1
    35    18    19   ar
    36    19    20   ar
    37    19    21   ar
    38    20    22   ar
    39    21    23    1
    40    21    24   ar
    41    22    25   ar
    42    23    26    1
    43    23    42    1
    44    23    43    1
    45    24    25   ar
    46    24    44    1
    47    26    27    2
    48    26    46    1
    49    27    29    1
    50    27    30    1
    51    28    48    1
    52    28    49    1
    53    28    50    1
    54    29    54    1
    55    29    55    1
    56    29    56    1
    57    30    51    1
    58    30    52    1
    59    30    53    1
