@<TRIPOS>MOLECULE
IMPHY009728
 35 36 0 0 0
SMALL
GASTEIGER

@<TRIPOS>ATOM
      1 O           4.2690   -3.8100    0.0000 O.3     1  UNL1       -0.4949
      2 O           2.5369   -0.8100    0.0000 O.3     1  UNL1       -0.5058
      3 O           6.0010   -0.8100    0.0000 O.3     1  UNL1       -0.5058
      4 O           3.4030    0.6900    0.0000 O.2     1  UNL1       -0.2870
      5 O           8.5991    3.6900    0.0000 O.3     1  UNL1       -0.5068
      6 C           4.2690   -0.8100    0.0000 C.ar    1  UNL1        0.1045
      7 C           3.4030   -1.3100    0.0000 C.ar    1  UNL1        0.1346
      8 C           5.1350   -1.3100    0.0000 C.ar    1  UNL1        0.1346
      9 C           4.2690   -2.8100    0.0000 C.ar    1  UNL1        0.1271
     10 C           4.2690    0.1900    0.0000 C.2     1  UNL1        0.1931
     11 C           3.4030   -2.3100    0.0000 C.ar    1  UNL1        0.0225
     12 C           5.1350   -2.3100    0.0000 C.ar    1  UNL1        0.0225
     13 C           6.0010    2.1900    0.0000 C.ar    1  UNL1       -0.0247
     14 C           5.1350    0.6900    0.0000 C.2     1  UNL1       -0.0135
     15 C           5.1350    1.6900    0.0000 C.2     1  UNL1       -0.0510
     16 C           6.8671    1.6900    0.0000 C.ar    1  UNL1       -0.0511
     17 C           6.0010    3.1900    0.0000 C.ar    1  UNL1       -0.0511
     18 C           7.7331    2.1900    0.0000 C.ar    1  UNL1       -0.0196
     19 C           6.8671    3.6900    0.0000 C.ar    1  UNL1       -0.0196
     20 C           7.7331    3.1900    0.0000 C.ar    1  UNL1        0.1169
     21 C           3.4030   -4.3100    0.0000 C.3     1  UNL1        0.0788
     22 H           2.8660   -2.6200    0.0000 H       1  UNL1        0.0691
     23 H           5.6720   -2.6200    0.0000 H       1  UNL1        0.0691
     24 H           5.6720    0.3800    0.0000 H       1  UNL1        0.0656
     25 H           4.5981    2.0000    0.0000 H       1  UNL1        0.0625
     26 H           6.8671    1.0700    0.0000 H       1  UNL1        0.0625
     27 H           5.4641    3.5000    0.0000 H       1  UNL1        0.0625
     28 H           8.2700    1.8800    0.0000 H       1  UNL1        0.0654
     29 H           6.8671    4.3100    0.0000 H       1  UNL1        0.0654
     30 H           2.0000   -1.1200    0.0000 H       1  UNL1        0.2922
     31 H           6.5380   -1.1200    0.0000 H       1  UNL1        0.2922
     32 H           3.0930   -3.7731    0.0000 H       1  UNL1        0.0660
     33 H           2.8660   -4.6200    0.0000 H       1  UNL1        0.0660
     34 H           3.7130   -4.8469    0.0000 H       1  UNL1        0.0660
     35 H           8.5991    4.3100    0.0000 H       1  UNL1        0.2921
@<TRIPOS>BOND
     1     1     9    1
     2     1    21    1
     3     2     7    1
     4     2    30    1
     5     3     8    1
     6     3    31    1
     7     4    10    2
     8     5    20    1
     9     5    35    1
    10     6     7   ar
    11     6     8   ar
    12     6    10    1
    13     7    11   ar
    14     8    12   ar
    15     9    11   ar
    16     9    12   ar
    17    10    14    1
    18    11    22    1
    19    12    23    1
    20    13    15    1
    21    13    16   ar
    22    13    17   ar
    23    14    15    2
    24    14    24    1
    25    15    25    1
    26    16    18   ar
    27    16    26    1
    28    17    19   ar
    29    17    27    1
    30    18    20   ar
    31    18    28    1
    32    19    20   ar
    33    19    29    1
    34    21    32    1
    35    21    33    1
    36    21    34    1
