@<TRIPOS>MOLECULE
IMPHY013480
 198 208 0 0 0
SMALL
GASTEIGER

@<TRIPOS>ATOM
      1 O          21.8779    3.4840    0.0000 O.3     1  UNL1       -0.3448
      2 O          20.0774    5.2758    0.0000 O.3     1  UNL1       -0.3944
      3 O          12.9292    0.4664    0.0000 O.3     1  UNL1       -0.4318
      4 O          13.7953    1.9664    0.0000 O.2     1  UNL1       -0.2501
      5 O          23.6098    3.4640    0.0000 O.3     1  UNL1       -0.3461
      6 O          21.8547    1.4841    0.0000 O.3     1  UNL1       -0.3378
      7 O          11.1972    0.4664    0.0000 O.3     1  UNL1       -0.3312
      8 O          23.5751    0.4642    0.0000 O.3     1  UNL1       -0.3864
      9 O          25.3186    1.4441    0.0000 O.3     1  UNL1       -0.3869
     10 O          12.9292    2.4664    0.0000 O.3     1  UNL1       -0.3829
     11 O          11.1972    3.4664    0.0000 O.3     1  UNL1       -0.3864
     12 O          22.7034   -0.0258    0.0000 O.3     1  UNL1       -0.3431
     13 O           9.4651    2.4664    0.0000 O.3     1  UNL1       -0.3865
     14 O           9.4651   -0.5336    0.0000 O.3     1  UNL1       -0.3460
     15 O          20.1112    0.5042    0.0000 O.3     1  UNL1       -0.3841
     16 O          20.0881   -1.4956    0.0000 O.3     1  UNL1       -0.3401
     17 O          21.8085   -2.5156    0.0000 O.3     1  UNL1       -0.3866
     18 O           7.7331   -0.5336    0.0000 O.3     1  UNL1       -0.3405
     19 O          20.9367   -3.0056    0.0000 O.3     1  UNL1       -0.3461
     20 O           9.4651   -2.5336    0.0000 O.3     1  UNL1       -0.3841
     21 O          18.3446   -2.4755    0.0000 O.3     1  UNL1       -0.3841
     22 O           7.7331   -3.5336    0.0000 O.3     1  UNL1       -0.3864
     23 O           6.0010   -2.5336    0.0000 O.3     1  UNL1       -0.3401
     24 O          18.3215   -4.4754    0.0000 O.3     1  UNL1       -0.3864
     25 O          20.0419   -5.4954    0.0000 O.3     1  UNL1       -0.3869
     26 O           6.0010    0.4664    0.0000 O.3     1  UNL1       -0.3924
     27 O           4.2690   -2.5336    0.0000 O.3     1  UNL1       -0.3431
     28 O           6.0010   -0.5336    0.0000 O.3     1  UNL1       -0.3841
     29 O           4.2690    0.4664    0.0000 O.3     1  UNL1       -0.3864
     30 O           2.5369   -0.5336    0.0000 O.3     1  UNL1       -0.3866
     31 C          17.3390    1.9666    0.0000 C.3     1  UNL1       -0.0194
     32 C          18.2011    1.4600    0.0000 C.3     1  UNL1       -0.0257
     33 C          19.1150    1.9598    0.0000 C.3     1  UNL1       -0.0249
     34 C          16.4691    1.4733    0.0000 C.3     1  UNL1       -0.0051
     35 C          19.1311    3.0013    0.0000 C.3     1  UNL1       -0.0255
     36 C          17.3309    3.0082    0.0000 C.3     1  UNL1       -0.0463
     37 C          20.0707    3.5438    0.0000 C.3     1  UNL1        0.0206
     38 C          18.2330    3.5290    0.0000 C.3     1  UNL1       -0.0485
     39 C          16.4614    0.4733    0.0000 C.2     1  UNL1       -0.0629
     40 C          20.0375    1.3886    0.0000 C.3     1  UNL1       -0.0447
     41 C          18.1934    0.4600    0.0000 C.3     1  UNL1       -0.0306
     42 C          15.5634   -0.0544    0.0000 C.3     1  UNL1       -0.0031
     43 C          15.5793    2.0148    0.0000 C.3     1  UNL1       -0.0424
     44 C          14.6613    0.4664    0.0000 C.3     1  UNL1        0.0744
     45 C          21.0061    2.9940    0.0000 C.3     1  UNL1        0.0695
     46 C          16.7021    2.7376    0.0000 C.3     1  UNL1       -0.0585
     47 C          14.6693    1.5080    0.0000 C.3     1  UNL1       -0.0359
     48 C          19.0996    0.9599    0.0000 C.3     1  UNL1       -0.0590
     49 C          20.9894    1.9092    0.0000 C.3     1  UNL1       -0.0254
     50 C          17.3236   -0.0333    0.0000 C.2     1  UNL1       -0.0836
     51 C          16.1343    2.4156    0.0000 C.3     1  UNL1       -0.0553
     52 C          15.5801   -1.1393    0.0000 C.3     1  UNL1       -0.0403
     53 C          13.7134   -0.0615    0.0000 C.3     1  UNL1       -0.0362
     54 C          14.6447   -1.6890    0.0000 C.3     1  UNL1       -0.0343
     55 C          20.5740    4.4079    0.0000 C.3     1  UNL1        0.0522
     56 C          19.5740    4.4117    0.0000 C.3     1  UNL1       -0.0548
     57 C          13.7050   -1.1465    0.0000 C.3     1  UNL1       -0.0468
     58 C          13.7953    0.9664    0.0000 C.2     1  UNL1        0.3161
     59 C          15.1480   -2.5531    0.0000 C.3     1  UNL1       -0.0598
     60 C          14.1480   -2.5570    0.0000 C.3     1  UNL1       -0.0598
     61 C          22.7380    2.9740    0.0000 C.3     1  UNL1        0.1882
     62 C          22.7265    1.9741    0.0000 C.3     1  UNL1        0.1406
     63 C          12.0632    0.9664    0.0000 C.3     1  UNL1        0.2337
     64 C          23.5867    1.4641    0.0000 C.3     1  UNL1        0.1141
     65 C          24.4700    2.9540    0.0000 C.3     1  UNL1        0.0792
     66 C          24.4584    1.9541    0.0000 C.3     1  UNL1        0.1069
     67 C          12.0632    1.9664    0.0000 C.3     1  UNL1        0.1455
     68 C          11.1972    2.4664    0.0000 C.3     1  UNL1        0.1152
     69 C          10.3312    0.9664    0.0000 C.3     1  UNL1        0.1144
     70 C          10.3312    1.9664    0.0000 C.3     1  UNL1        0.1120
     71 C          21.8432    0.4842    0.0000 C.3     1  UNL1        0.1884
     72 C          20.9714   -0.0057    0.0000 C.3     1  UNL1        0.1345
     73 C           9.4651    0.4664    0.0000 C.3     1  UNL1        0.0796
     74 C          20.9599   -1.0057    0.0000 C.3     1  UNL1        0.1205
     75 C          22.6918   -1.0257    0.0000 C.3     1  UNL1        0.0873
     76 C          21.8200   -1.5157    0.0000 C.3     1  UNL1        0.1098
     77 C          23.5520   -1.5357    0.0000 C.3     1  UNL1       -0.0361
     78 C           8.5991   -1.0336    0.0000 C.3     1  UNL1        0.1880
     79 C          20.0765   -2.4956    0.0000 C.3     1  UNL1        0.1880
     80 C           8.5991   -2.0336    0.0000 C.3     1  UNL1        0.1341
     81 C          19.2048   -2.9855    0.0000 C.3     1  UNL1        0.1341
     82 C           7.7331   -2.5336    0.0000 C.3     1  UNL1        0.1144
     83 C           6.8671   -1.0336    0.0000 C.3     1  UNL1        0.1134
     84 C           6.8671   -2.0336    0.0000 C.3     1  UNL1        0.1184
     85 C          19.1932   -3.9854    0.0000 C.3     1  UNL1        0.1137
     86 C          20.9252   -4.0055    0.0000 C.3     1  UNL1        0.0792
     87 C          20.0534   -4.4954    0.0000 C.3     1  UNL1        0.1069
     88 C           6.0010   -0.5336    0.0000 C.3     1  UNL1        0.0730
     89 C           5.1350   -2.0336    0.0000 C.3     1  UNL1        0.1883
     90 C           5.1350   -1.0336    0.0000 C.3     1  UNL1        0.1341
     91 C           4.2690   -0.5336    0.0000 C.3     1  UNL1        0.1140
     92 C           3.4030   -2.0336    0.0000 C.3     1  UNL1        0.0873
     93 C           3.4030   -1.0336    0.0000 C.3     1  UNL1        0.1095
     94 C           2.5369   -2.5336    0.0000 C.3     1  UNL1       -0.0361
     95 H          18.9306    1.0237    0.0000 H       1  UNL1        0.0315
     96 H          19.1343    3.8513    0.0000 H       1  UNL1        0.0313
     97 H          17.1174    3.5903    0.0000 H       1  UNL1        0.0271
     98 H          16.7209    2.8974    0.0000 H       1  UNL1        0.0271
     99 H          18.6340    4.0019    0.0000 H       1  UNL1        0.0268
    100 H          17.8357    4.0050    0.0000 H       1  UNL1        0.0268
    101 H          19.6257    0.9251    0.0000 H       1  UNL1        0.0271
    102 H          20.4237    0.9035    0.0000 H       1  UNL1        0.0271
    103 H          18.4010   -0.1242    0.0000 H       1  UNL1        0.0310
    104 H          18.8048    0.5629    0.0000 H       1  UNL1        0.0310
    105 H          16.3044   -0.4709    0.0000 H       1  UNL1        0.0357
    106 H          15.9875    2.4815    0.0000 H       1  UNL1        0.0274
    107 H          15.1894    2.4969    0.0000 H       1  UNL1        0.0274
    108 H          21.5388    2.6768    0.0000 H       1  UNL1        0.0603
    109 H          17.1801    3.1324    0.0000 H       1  UNL1        0.0235
    110 H          16.3073    3.2156    0.0000 H       1  UNL1        0.0235
    111 H          16.2241    2.3427    0.0000 H       1  UNL1        0.0235
    112 H          14.4648    2.0933    0.0000 H       1  UNL1        0.0276
    113 H          14.0577    1.4066    0.0000 H       1  UNL1        0.0276
    114 H          18.4797    0.9695    0.0000 H       1  UNL1        0.0235
    115 H          19.0900    0.3400    0.0000 H       1  UNL1        0.0235
    116 H          19.7195    0.9503    0.0000 H       1  UNL1        0.0235
    117 H          21.1894    1.3223    0.0000 H       1  UNL1        0.0290
    118 H          21.6018    2.0058    0.0000 H       1  UNL1        0.0290
    119 H          17.3188   -0.6533    0.0000 H       1  UNL1        0.0572
    120 H          16.7186    2.6232    0.0000 H       1  UNL1        0.0238
    121 H          15.9268    2.9998    0.0000 H       1  UNL1        0.0238
    122 H          15.5501    2.2081    0.0000 H       1  UNL1        0.0238
    123 H          15.7981   -1.7197    0.0000 H       1  UNL1        0.0276
    124 H          16.1892   -1.0238    0.0000 H       1  UNL1        0.0276
    125 H          13.5089    0.5237    0.0000 H       1  UNL1        0.0276
    126 H          13.1018   -0.1629    0.0000 H       1  UNL1        0.0276
    127 H          21.0474    4.0075    0.0000 H       1  UNL1        0.0563
    128 H          21.0505    4.8046    0.0000 H       1  UNL1        0.0563
    129 H          20.1122    4.7196    0.0000 H       1  UNL1        0.0237
    130 H          19.2661    4.9498    0.0000 H       1  UNL1        0.0237
    131 H          19.0359    4.1038    0.0000 H       1  UNL1        0.0237
    132 H          13.0950   -1.0357    0.0000 H       1  UNL1        0.0271
    133 H          13.4915   -1.7286    0.0000 H       1  UNL1        0.0271
    134 H          14.6123   -2.8652    0.0000 H       1  UNL1        0.0235
    135 H          15.4601   -3.0888    0.0000 H       1  UNL1        0.0235
    136 H          15.6837   -2.2410    0.0000 H       1  UNL1        0.0235
    137 H          13.6099   -2.2490    0.0000 H       1  UNL1        0.0235
    138 H          13.8401   -3.0951    0.0000 H       1  UNL1        0.0235
    139 H          14.6861   -2.8649    0.0000 H       1  UNL1        0.0235
    140 H          22.1976    2.6702    0.0000 H       1  UNL1        0.0937
    141 H          20.3894    5.8116    0.0000 H       1  UNL1        0.2094
    142 H          22.7193    1.3541    0.0000 H       1  UNL1        0.0675
    143 H          12.6002    1.2764    0.0000 H       1  UNL1        0.1085
    144 H          24.1200    1.1479    0.0000 H       1  UNL1        0.0648
    145 H          25.0793    2.8393    0.0000 H       1  UNL1        0.0587
    146 H          24.6888    3.5341    0.0000 H       1  UNL1        0.0587
    147 H          24.9989    2.2578    0.0000 H       1  UNL1        0.0643
    148 H          12.0632    2.5864    0.0000 H       1  UNL1        0.0683
    149 H          10.6603    2.7764    0.0000 H       1  UNL1        0.0648
    150 H          10.3312    0.3464    0.0000 H       1  UNL1        0.0647
    151 H           9.7942    1.6564    0.0000 H       1  UNL1        0.0647
    152 H          21.3099    0.8004    0.0000 H       1  UNL1        0.0938
    153 H          24.1084    0.1480    0.0000 H       1  UNL1        0.2100
    154 H          25.8591    1.7478    0.0000 H       1  UNL1        0.2100
    155 H          12.9292    3.0864    0.0000 H       1  UNL1        0.2102
    156 H          20.4309   -0.3095    0.0000 H       1  UNL1        0.0671
    157 H           9.2531    1.0490    0.0000 H       1  UNL1        0.0587
    158 H           8.8546    0.3587    0.0000 H       1  UNL1        0.0587
    159 H          11.7341    3.7764    0.0000 H       1  UNL1        0.2100
    160 H          20.9527   -1.6256    0.0000 H       1  UNL1        0.0651
    161 H           9.4651    3.0864    0.0000 H       1  UNL1        0.2100
    162 H          23.2323   -0.7219    0.0000 H       1  UNL1        0.0621
    163 H          22.3534   -1.8318    0.0000 H       1  UNL1        0.0646
    164 H          19.5708    0.2005    0.0000 H       1  UNL1        0.2101
    165 H          23.2358   -2.0690    0.0000 H       1  UNL1        0.0255
    166 H          24.0853   -1.8519    0.0000 H       1  UNL1        0.0255
    167 H          23.8682   -1.0024    0.0000 H       1  UNL1        0.0255
    168 H           8.5991   -0.4136    0.0000 H       1  UNL1        0.0937
    169 H          22.3418   -2.8318    0.0000 H       1  UNL1        0.2100
    170 H          19.5432   -2.1794    0.0000 H       1  UNL1        0.0937
    171 H           8.5991   -2.6536    0.0000 H       1  UNL1        0.0671
    172 H          19.2120   -2.3656    0.0000 H       1  UNL1        0.0671
    173 H           7.1962   -2.8436    0.0000 H       1  UNL1        0.0648
    174 H           6.8671   -0.4136    0.0000 H       1  UNL1        0.0647
    175 H           6.3301   -1.7236    0.0000 H       1  UNL1        0.0651
    176 H          18.6599   -3.6693    0.0000 H       1  UNL1        0.0647
    177 H          10.0021   -2.2236    0.0000 H       1  UNL1        0.2101
    178 H          21.1305   -4.5905    0.0000 H       1  UNL1        0.0587
    179 H          21.5370   -3.9049    0.0000 H       1  UNL1        0.0587
    180 H          20.5867   -4.8116    0.0000 H       1  UNL1        0.0643
    181 H           5.3905   -0.4259    0.0000 H       1  UNL1        0.0584
    182 H           5.7890   -1.1162    0.0000 H       1  UNL1        0.0584
    183 H          17.8041   -2.7793    0.0000 H       1  UNL1        0.2101
    184 H           8.2700   -3.8436    0.0000 H       1  UNL1        0.2100
    185 H          18.3143   -5.0954    0.0000 H       1  UNL1        0.2100
    186 H           5.1350   -2.6536    0.0000 H       1  UNL1        0.0938
    187 H          20.5752   -5.8116    0.0000 H       1  UNL1        0.2100
    188 H           6.5380    0.7764    0.0000 H       1  UNL1        0.2095
    189 H           5.1350   -0.4136    0.0000 H       1  UNL1        0.0671
    190 H           3.7320   -0.2236    0.0000 H       1  UNL1        0.0648
    191 H           3.4030   -2.6536    0.0000 H       1  UNL1        0.0621
    192 H           3.4030   -0.4136    0.0000 H       1  UNL1        0.0646
    193 H           6.0010    0.0864    0.0000 H       1  UNL1        0.2101
    194 H           2.2269   -1.9967    0.0000 H       1  UNL1        0.0255
    195 H           2.0000   -2.8436    0.0000 H       1  UNL1        0.0255
    196 H           2.8469   -3.0705    0.0000 H       1  UNL1        0.0255
    197 H           3.7320    0.7764    0.0000 H       1  UNL1        0.2100
    198 H           2.0000   -0.8436    0.0000 H       1  UNL1        0.2100
@<TRIPOS>BOND
     1    45     1    1
     2    61     1    1
     3     2    55    1
     4     2   141    1
     5     3    58    1
     6    63     3    1
     7     4    58    2
     8     5    61    1
     9     5    65    1
    10    62     6    1
    11    71     6    1
    12     7    63    1
    13     7    69    1
    14    64     8    1
    15     8   153    1
    16    66     9    1
    17     9   154    1
    18    67    10    1
    19    10   155    1
    20    68    11    1
    21    11   159    1
    22    12    71    1
    23    12    75    1
    24    70    13    1
    25    13   161    1
    26    14    73    1
    27    78    14    1
    28    72    15    1
    29    15   164    1
    30    74    16    1
    31    79    16    1
    32    76    17    1
    33    17   169    1
    34    18    78    1
    35    18    83    1
    36    19    79    1
    37    19    86    1
    38    80    20    1
    39    20   177    1
    40    81    21    1
    41    21   183    1
    42    82    22    1
    43    22   184    1
    44    84    23    1
    45    89    23    1
    46    85    24    1
    47    24   185    1
    48    87    25    1
    49    25   187    1
    50    26    88    1
    51    26   188    1
    52    27    89    1
    53    27    92    1
    54    90    28    1
    55    28   193    1
    56    91    29    1
    57    29   197    1
    58    93    30    1
    59    30   198    1
    60    31    32    1
    61    31    34    1
    62    31    36    1
    63    31    46    1
    64    32    33    1
    65    32    41    1
    66    32    95    1
    67    33    35    1
    68    33    40    1
    69    33    48    1
    70    34    39    1
    71    34    43    1
    72    34    51    1
    73    35    37    1
    74    35    38    1
    75    35    96    1
    76    36    38    1
    77    36    97    1
    78    36    98    1
    79    37    45    1
    80    37    55    1
    81    37    56    1
    82    38    99    1
    83    38   100    1
    84    39    42    1
    85    39    50    2
    86    40    49    1
    87    40   101    1
    88    40   102    1
    89    41    50    1
    90    41   103    1
    91    41   104    1
    92    42    44    1
    93    42    52    1
    94    42   105    1
    95    43    47    1
    96    43   106    1
    97    43   107    1
    98    44    47    1
    99    44    53    1
   100    44    58    1
   101    45    49    1
   102    45   108    1
   103    46   109    1
   104    46   110    1
   105    46   111    1
   106    47   112    1
   107    47   113    1
   108    48   114    1
   109    48   115    1
   110    48   116    1
   111    49   117    1
   112    49   118    1
   113    50   119    1
   114    51   120    1
   115    51   121    1
   116    51   122    1
   117    52    54    1
   118    52   123    1
   119    52   124    1
   120    53    57    1
   121    53   125    1
   122    53   126    1
   123    54    57    1
   124    54    59    1
   125    54    60    1
   126    55   127    1
   127    55   128    1
   128    56   129    1
   129    56   130    1
   130    56   131    1
   131    57   132    1
   132    57   133    1
   133    59   134    1
   134    59   135    1
   135    59   136    1
   136    60   137    1
   137    60   138    1
   138    60   139    1
   139    61    62    1
   140    61   140    1
   141    62    64    1
   142    62   142    1
   143    63    67    1
   144    63   143    1
   145    64    66    1
   146    64   144    1
   147    65    66    1
   148    65   145    1
   149    65   146    1
   150    66   147    1
   151    67    68    1
   152    67   148    1
   153    68    70    1
   154    68   149    1
   155    69    70    1
   156    69    73    1
   157    69   150    1
   158    70   151    1
   159    71    72    1
   160    71   152    1
   161    72    74    1
   162    72   156    1
   163    73   157    1
   164    73   158    1
   165    74    76    1
   166    74   160    1
   167    75    76    1
   168    75    77    1
   169    75   162    1
   170    76   163    1
   171    77   165    1
   172    77   166    1
   173    77   167    1
   174    78    80    1
   175    78   168    1
   176    79    81    1
   177    79   170    1
   178    80    82    1
   179    80   171    1
   180    81    85    1
   181    81   172    1
   182    82    84    1
   183    82   173    1
   184    83    84    1
   185    83    88    1
   186    83   174    1
   187    84   175    1
   188    85    87    1
   189    85   176    1
   190    86    87    1
   191    86   178    1
   192    86   179    1
   193    87   180    1
   194    88   181    1
   195    88   182    1
   196    89    90    1
   197    89   186    1
   198    90    91    1
   199    90   189    1
   200    91    93    1
   201    91   190    1
   202    92    93    1
   203    92    94    1
   204    92   191    1
   205    93   192    1
   206    94   194    1
   207    94   195    1
   208    94   196    1
