@<TRIPOS>MOLECULE
IMPHY010769
 28 30 0 0 0
SMALL
GASTEIGER

@<TRIPOS>ATOM
      1 O           3.5213   -5.3944    0.0000 O.3     1  UNL1       -0.4528
      2 C           4.6024   -6.1864    0.0000 C.2     1  UNL1        0.3369
      3 C           5.7048   -5.3944    0.0000 C.2     1  UNL1        0.0557
      4 C           5.2981   -4.1207    0.0000 C.3     1  UNL1        0.0768
      5 C           6.1222   -3.0611    0.0000 C.3     1  UNL1        0.1746
      6 C           5.8332   -1.7553    0.0000 C.3     1  UNL1        0.0741
      7 C           4.6024   -1.1666    0.0000 C.3     1  UNL1        0.1303
      8 C           3.4571   -1.7232    0.0000 C.3     1  UNL1        0.0322
      9 C           3.0504   -2.9969    0.0000 C.2     1  UNL1       -0.0148
     10 C           1.7125   -2.9969    0.0000 C.2     1  UNL1        0.0076
     11 C           1.2737   -1.7232    0.0000 C.2     1  UNL1        0.1687
     12 C           2.3761   -0.9312    0.0000 C.3     1  UNL1        0.0710
     13 C           3.9388   -4.1207    0.0000 C.3     1  UNL1        0.1363
     14 O           4.6024   -7.5350    0.0000 O.2     1  UNL1       -0.2453
     15 C           6.7751   -5.8546    0.0000 C.2     1  UNL1        0.0019
     16 O           7.2032   -3.5856    0.0000 O.3     1  UNL1       -0.4521
     17 C           8.3806   -2.9220    0.0000 C.2     1  UNL1        0.3163
     18 O           8.3806   -1.5734    0.0000 O.2     1  UNL1       -0.2501
     19 O           3.9388    0.0000    0.0000 O.3     1  UNL1       -0.2255
     20 C           5.2981    0.0000    0.0000 C.3     1  UNL1        0.0331
     21 C           0.9098   -4.0886    0.0000 C.3     1  UNL1        0.0335
     22 O           0.0000   -1.3058    0.0000 O.2     1  UNL1       -0.2917
     23 C           9.5472   -3.5856    0.0000 C.3     1  UNL1        0.0991
     24 C          10.7032   -2.9220    0.0000 C.3     1  UNL1        0.0116
     25 C           9.5472   -4.9342    0.0000 C.3     1  UNL1        0.0116
     26 H           3.4678   -0.5780    0.0000 H       1  UNL1        0.0387
     27 H           2.6009   -4.1207    0.0000 H       1  UNL1        0.0790
     28 H           6.6360   -4.1207    0.0000 H       1  UNL1        0.0432
@<TRIPOS>BOND
     1     1     2    1
     2     1    13    1
     3     2     3    1
     4     2    14    2
     5     3     4    1
     6     3    15    2
     7     4    13    1
     8     4     5    1
     9     4    28    1
    10     5     6    1
    11     5    16    1
    12     6     7    1
    13     7     8    1
    14     7    20    1
    15     7    19    1
    16     8     9    1
    17     8    12    1
    18     8    26    1
    19     9    13    1
    20     9    10    2
    21    10    11    1
    22    10    21    1
    23    11    12    1
    24    11    22    2
    25    13    27    1
    26    16    17    1
    27    17    18    2
    28    17    23    1
    29    23    24    1
    30    23    25    1
