@<TRIPOS>MOLECULE
IMPHY000397
 86 90 0 0 0
SMALL
GASTEIGER

@<TRIPOS>ATOM
      1 O          10.6603   -1.5169    0.0000 O.3     1  UNL1       -0.3302
      2 O          12.3923   -1.5169    0.0000 O.3     1  UNL1       -0.4571
      3 O          10.6603   -4.5169    0.0000 O.3     1  UNL1       -0.3864
      4 O           8.9282   -3.5169    0.0000 O.3     1  UNL1       -0.3864
      5 O          12.3923   -3.5169    0.0000 O.3     1  UNL1       -0.3829
      6 O           8.0622   -2.0169    0.0000 O.3     1  UNL1       -0.4589
      7 O          10.6603   -0.5169    0.0000 O.3     1  UNL1       -0.5033
      8 O          13.5902    4.2900    0.0000 O.3     1  UNL1       -0.4793
      9 O          15.0902    3.4240    0.0000 O.2     1  UNL1       -0.2489
     10 O           7.1962   -0.5169    0.0000 O.2     1  UNL1       -0.2456
     11 O          19.9129    3.0582    0.0000 O.3     1  UNL1       -0.4791
     12 OXT        18.6237    4.2149    0.0000 O.2     1  UNL1       -0.2486
     13 O          19.1985   -0.3315    0.0000 O.3     1  UNL1       -0.4761
     14 OXT        17.5522   -0.8695    0.0000 O.2     1  UNL1       -0.2434
     15 O           2.0000   -1.5169    0.0000 O.3     1  UNL1       -0.4914
     16 O           2.0000   -3.5169    0.0000 O.3     1  UNL1       -0.5033
     17 N          13.9953    1.6502    0.0000 N.pl3   1  UNL1       -0.2920
     18 N          18.5772    1.5696    0.0000 N.2     1  UNL1       -0.2620
     19 C          10.6603   -3.5169    0.0000 C.3     1  UNL1        0.1152
     20 C           9.7942   -3.0169    0.0000 C.3     1  UNL1        0.1130
     21 C          11.5263   -3.0169    0.0000 C.3     1  UNL1        0.1454
     22 C           9.7942   -2.0169    0.0000 C.3     1  UNL1        0.1250
     23 C          11.5263   -2.0169    0.0000 C.3     1  UNL1        0.2310
     24 C           8.9282   -1.5169    0.0000 C.3     1  UNL1        0.1215
     25 C          13.5902    2.5579    0.0000 C.3     1  UNL1        0.1285
     26 C          12.6015    2.4549    0.0000 C.3     1  UNL1        0.0035
     27 C          13.2583    0.9831    0.0000 C.ar    1  UNL1        0.0412
     28 C          12.3923    1.4831    0.0000 C.ar    1  UNL1       -0.0200
     29 C          12.3923   -0.5169    0.0000 C.ar    1  UNL1        0.1669
     30 C          13.2583   -0.0169    0.0000 C.ar    1  UNL1        0.0055
     31 C          11.5263    0.9831    0.0000 C.ar    1  UNL1       -0.0115
     32 C          11.5263   -0.0169    0.0000 C.ar    1  UNL1        0.1589
     33 C          14.9739    1.4439    0.0000 C.2     1  UNL1       -0.0021
     34 C          14.0902    3.4240    0.0000 C.2     1  UNL1        0.3260
     35 C          15.6417    2.1882    0.0000 C.2     1  UNL1       -0.0444
     36 C          16.6202    1.9820    0.0000 C.2     1  UNL1       -0.0414
     37 C           7.1962   -1.5169    0.0000 C.2     1  UNL1        0.3320
     38 C          17.2880    2.7263    0.0000 C.3     1  UNL1        0.0053
     39 CA         18.2666    2.5201    0.0000 C.3     1  UNL1        0.1519
     40 C          16.9309    1.0315    0.0000 C.2     1  UNL1       -0.0264
     41 C           6.3301   -2.0169    0.0000 C.2     1  UNL1        0.0231
     42 CA         17.9094    0.8253    0.0000 C.2     1  UNL1        0.1433
     43 C          18.9344    3.2644    0.0000 C.2     1  UNL1        0.3298
     44 C           5.4641   -1.5169    0.0000 C.2     1  UNL1       -0.0477
     45 C          18.2200   -0.1252    0.0000 C.2     1  UNL1        0.3549
     46 C           4.5981   -2.0169    0.0000 C.ar    1  UNL1       -0.0211
     47 C           3.7320   -1.5169    0.0000 C.ar    1  UNL1       -0.0092
     48 C           4.5981   -3.0169    0.0000 C.ar    1  UNL1       -0.0509
     49 C           2.8660   -2.0169    0.0000 C.ar    1  UNL1        0.1618
     50 C           3.7320   -3.5169    0.0000 C.ar    1  UNL1       -0.0160
     51 C           2.8660   -3.0169    0.0000 C.ar    1  UNL1        0.1585
     52 C           2.0000   -0.5169    0.0000 C.3     1  UNL1        0.0790
     53 H          11.1972   -3.8269    0.0000 H       1  UNL1        0.0648
     54 H           9.2573   -2.7069    0.0000 H       1  UNL1        0.0647
     55 H          12.0632   -2.7069    0.0000 H       1  UNL1        0.0683
     56 H           9.7942   -1.3969    0.0000 H       1  UNL1        0.0658
     57 H          11.5263   -1.3969    0.0000 H       1  UNL1        0.1084
     58 H           9.3267   -1.0420    0.0000 H       1  UNL1        0.0725
     59 H           8.5297   -1.0420    0.0000 H       1  UNL1        0.0725
     60 H          14.2094    2.5258    0.0000 H       1  UNL1        0.0622
     61 H          12.6024    3.0749    0.0000 H       1  UNL1        0.0337
     62 H          11.9850    2.5209    0.0000 H       1  UNL1        0.0337
     63 H          13.7953   -0.3269    0.0000 H       1  UNL1        0.0674
     64 H          10.1233   -4.8269    0.0000 H       1  UNL1        0.2100
     65 H           8.9282   -4.1369    0.0000 H       1  UNL1        0.2100
     66 H          12.3923   -4.1369    0.0000 H       1  UNL1        0.2102
     67 H          10.9893    1.2931    0.0000 H       1  UNL1        0.0658
     68 H          15.1665    0.8546    0.0000 H       1  UNL1        0.0784
     69 H          15.4491    2.7776    0.0000 H       1  UNL1        0.0633
     70 H          10.1233   -0.2069    0.0000 H       1  UNL1        0.2923
     71 H          17.5193    3.3016    0.0000 H       1  UNL1        0.0339
     72 H          16.7617    3.0540    0.0000 H       1  UNL1        0.0339
     73 H          13.9002    4.8269    0.0000 H       1  UNL1        0.2951
     74 HA         18.8732    2.3923    0.0000 H       1  UNL1        0.0664
     75 H          16.5168    0.5700    0.0000 H       1  UNL1        0.0644
     76 H           6.3301   -2.6369    0.0000 H       1  UNL1        0.0689
     77 H           5.4641   -0.8969    0.0000 H       1  UNL1        0.0626
     78 H          20.3270    3.5196    0.0000 H       1  UNL1        0.2951
     79 H           3.7320   -0.8969    0.0000 H       1  UNL1        0.0661
     80 H           5.1350   -3.3269    0.0000 H       1  UNL1        0.0625
     81 H          19.3911   -0.9208    0.0000 H       1  UNL1        0.2955
     82 H           3.7320   -4.1369    0.0000 H       1  UNL1        0.0655
     83 H           2.0000   -4.1369    0.0000 H       1  UNL1        0.2923
     84 H           2.6200   -0.5169    0.0000 H       1  UNL1        0.0660
     85 H           2.0000    0.1031    0.0000 H       1  UNL1        0.0660
     86 H           1.3800   -0.5169    0.0000 H       1  UNL1        0.0660
@<TRIPOS>BOND
     1     1    22    1
     2     1    23    1
     3    23     2    1
     4     2    29    1
     5    19     3    1
     6     3    64    1
     7    20     4    1
     8     4    65    1
     9    21     5    1
    10     5    66    1
    11     6    24    1
    12     6    37    1
    13     7    32    1
    14     7    70    1
    15     8    34    1
    16     8    73    1
    17     9    34    2
    18    10    37    2
    19    11    43    1
    20    11    78    1
    21    12    43    2
    22    13    45    1
    23    13    81    1
    24    14    45    2
    25    15    49    1
    26    15    52    1
    27    16    51    1
    28    16    83    1
    29    17    25    1
    30    17    27    1
    31    17    33    1
    32    18    39    1
    33    18    42    2
    34    19    20    1
    35    19    21    1
    36    19    53    1
    37    20    22    1
    38    20    54    1
    39    21    23    1
    40    21    55    1
    41    22    24    1
    42    22    56    1
    43    23    57    1
    44    24    58    1
    45    24    59    1
    46    25    26    1
    47    25    34    1
    48    25    60    1
    49    26    28    1
    50    26    61    1
    51    26    62    1
    52    27    28   ar
    53    27    30   ar
    54    28    31   ar
    55    29    30   ar
    56    29    32   ar
    57    30    63    1
    58    31    32   ar
    59    31    67    1
    60    33    35    2
    61    33    68    1
    62    35    36    1
    63    35    69    1
    64    36    38    1
    65    36    40    2
    66    37    41    1
    67    38    39    1
    68    38    71    1
    69    38    72    1
    70    39    43    1
    71    39    74    1
    72    40    42    1
    73    40    75    1
    74    41    44    2
    75    41    76    1
    76    42    45    1
    77    44    46    1
    78    44    77    1
    79    46    47   ar
    80    46    48   ar
    81    47    49   ar
    82    47    79    1
    83    48    50   ar
    84    48    80    1
    85    49    51   ar
    86    50    51   ar
    87    50    82    1
    88    52    84    1
    89    52    85    1
    90    52    86    1
