@<TRIPOS>MOLECULE
IMPHY008275
 142 148 0 0 0
SMALL
GASTEIGER

@<TRIPOS>ATOM
      1 O           9.4651   -3.1627    0.0000 O.3     1  UNL1       -0.3422
      2 O          14.4479    3.9976    0.0000 O.3     1  UNL1       -0.3449
      3 O          13.5933    0.5073    0.0000 O.2     1  UNL1       -0.3004
      4 O           7.7331   -3.1627    0.0000 O.3     1  UNL1       -0.3405
      5 O          16.0963    4.5294    0.0000 O.3     1  UNL1       -0.3405
      6 O           9.4651   -5.1627    0.0000 O.3     1  UNL1       -0.3841
      7 O          15.0619    2.0942    0.0000 O.3     1  UNL1       -0.3841
      8 O           7.7331   -6.1627    0.0000 O.3     1  UNL1       -0.3864
      9 O          17.0173    1.6742    0.0000 O.3     1  UNL1       -0.3864
     10 O           6.0010   -5.1627    0.0000 O.3     1  UNL1       -0.3865
     11 O          18.3587    3.1577    0.0000 O.3     1  UNL1       -0.3865
     12 O           6.0010   -2.1627    0.0000 O.3     1  UNL1       -0.3461
     13 O          17.4377    6.0128    0.0000 O.3     1  UNL1       -0.3924
     14 O           4.2690   -2.1627    0.0000 O.3     1  UNL1       -0.3461
     15 O           6.0010   -0.1627    0.0000 O.3     1  UNL1       -0.3841
     16 O           4.2690    0.8373    0.0000 O.3     1  UNL1       -0.3864
     17 O           2.5369   -0.1627    0.0000 O.3     1  UNL1       -0.3869
     18 C          10.6271    1.1157    0.0000 C.3     1  UNL1       -0.0227
     19 C           9.9592    0.3714    0.0000 C.3     1  UNL1       -0.0232
     20 C          11.6056    0.9095    0.0000 C.3     1  UNL1       -0.0228
     21 C          10.2699   -0.5791    0.0000 C.3     1  UNL1       -0.0297
     22 C          12.3131    1.6740    0.0000 C.3     1  UNL1        0.0327
     23 C          11.9971    2.6666    0.0000 C.3     1  UNL1       -0.0212
     24 C           9.4651   -1.1627    0.0000 C.3     1  UNL1       -0.0087
     25 C          10.2882    2.1007    0.0000 C.3     1  UNL1       -0.0465
     26 C          11.9162   -0.0410    0.0000 C.3     1  UNL1       -0.0485
     27 C           8.9651    0.3671    0.0000 C.3     1  UNL1       -0.0465
     28 C          11.2484   -0.7853    0.0000 C.3     1  UNL1       -0.0491
     29 C          10.9779    2.8814    0.0000 C.3     1  UNL1       -0.0482
     30 C           8.6604   -0.5791    0.0000 C.3     1  UNL1       -0.0468
     31 C          12.7155    3.4797    0.0000 C.3     1  UNL1       -0.0048
     32 C          13.3693    1.4258    0.0000 C.3     1  UNL1       -0.0380
     33 C           9.7781    1.6442    0.0000 C.3     1  UNL1       -0.0588
     34 C           9.3422    1.1584    0.0000 C.3     1  UNL1       -0.0588
     35 C           9.4651   -2.1627    0.0000 C.3     1  UNL1        0.0732
     36 C          13.7772    3.2559    0.0000 C.3     1  UNL1        0.0672
     37 C          14.1063    2.2220    0.0000 C.3     1  UNL1       -0.0251
     38 C          12.6164    0.7211    0.0000 C.2     1  UNL1        0.1270
     39 C          12.9179    4.4590    0.0000 C.3     1  UNL1       -0.0572
     40 C          11.9686    4.1446    0.0000 C.3     1  UNL1       -0.0572
     41 C          10.4651   -2.1627    0.0000 C.3     1  UNL1       -0.0202
     42 C           8.4651   -2.1627    0.0000 C.3     1  UNL1       -0.0354
     43 C          10.9651   -3.0287    0.0000 C.3     1  UNL1       -0.0319
     44 C           8.5991   -3.6627    0.0000 C.3     1  UNL1        0.1885
     45 C          15.4256    3.7877    0.0000 C.3     1  UNL1        0.1882
     46 C           8.5991   -4.6627    0.0000 C.3     1  UNL1        0.1341
     47 C          15.7326    2.8360    0.0000 C.3     1  UNL1        0.1341
     48 C          11.9651   -3.0287    0.0000 C.2     1  UNL1       -0.0852
     49 C           7.7331   -5.1627    0.0000 C.3     1  UNL1        0.1141
     50 C          16.7103    2.6260    0.0000 C.3     1  UNL1        0.1141
     51 C           6.8671   -3.6627    0.0000 C.3     1  UNL1        0.1134
     52 C          17.0740    4.3194    0.0000 C.3     1  UNL1        0.1130
     53 C           6.8671   -4.6627    0.0000 C.3     1  UNL1        0.1119
     54 C          17.3810    3.3677    0.0000 C.3     1  UNL1        0.1119
     55 C          12.4651   -3.8947    0.0000 C.2     1  UNL1       -0.0796
     56 C           6.0010   -3.1627    0.0000 C.3     1  UNL1        0.0796
     57 C          17.7447    5.0611    0.0000 C.3     1  UNL1        0.0730
     58 C          13.4651   -3.8947    0.0000 C.3     1  UNL1       -0.0440
     59 C          11.9651   -4.7608    0.0000 C.3     1  UNL1       -0.0440
     60 C           5.1350   -1.6627    0.0000 C.3     1  UNL1        0.1876
     61 C           5.1350   -0.6627    0.0000 C.3     1  UNL1        0.1341
     62 C           4.2690   -0.1627    0.0000 C.3     1  UNL1        0.1137
     63 C           3.4030   -1.6627    0.0000 C.3     1  UNL1        0.0792
     64 C           3.4030   -0.6627    0.0000 C.3     1  UNL1        0.1069
     65 H          12.4359    0.7278    0.0000 H       1  UNL1        0.0316
     66 H          10.4470   -1.4104    0.0000 H       1  UNL1        0.0310
     67 H          11.7299    3.4735    0.0000 H       1  UNL1        0.0316
     68 H           8.7080   -1.5489    0.0000 H       1  UNL1        0.0331
     69 H           9.9007    2.5847    0.0000 H       1  UNL1        0.0271
     70 H           9.7451    1.8017    0.0000 H       1  UNL1        0.0271
     71 H          12.2988   -0.5289    0.0000 H       1  UNL1        0.0268
     72 H          12.4631    0.2510    0.0000 H       1  UNL1        0.0268
     73 H           9.0276    0.9840    0.0000 H       1  UNL1        0.0271
     74 H           8.3583    0.4941    0.0000 H       1  UNL1        0.0271
     75 H          11.0171   -1.3606    0.0000 H       1  UNL1        0.0268
     76 H          11.7747   -1.1129    0.0000 H       1  UNL1        0.0268
     77 H          11.2077    3.4572    0.0000 H       1  UNL1        0.0269
     78 H          10.4498    3.2063    0.0000 H       1  UNL1        0.0269
     79 H           8.0935   -0.3280    0.0000 H       1  UNL1        0.0269
     80 H           8.3512   -1.1165    0.0000 H       1  UNL1        0.0269
     81 H          13.1263    0.8554    0.0000 H       1  UNL1        0.0276
     82 H          13.8897    1.0887    0.0000 H       1  UNL1        0.0276
     83 H          10.1057    2.1706    0.0000 H       1  UNL1        0.0235
     84 H           9.2517    1.9718    0.0000 H       1  UNL1        0.0235
     85 H           9.4504    1.1178    0.0000 H       1  UNL1        0.0235
     86 H           9.8301    1.5409    0.0000 H       1  UNL1        0.0235
     87 H           8.9596    1.6463    0.0000 H       1  UNL1        0.0235
     88 H           8.8543    0.7758    0.0000 H       1  UNL1        0.0235
     89 H          14.3831    3.1246    0.0000 H       1  UNL1        0.0602
     90 H          14.4825    1.7293    0.0000 H       1  UNL1        0.0291
     91 H          14.6562    2.5084    0.0000 H       1  UNL1        0.0291
     92 H          12.8045    0.1303    0.0000 H       1  UNL1        0.1032
     93 H          13.5251    4.3334    0.0000 H       1  UNL1        0.0236
     94 H          13.0434    5.0661    0.0000 H       1  UNL1        0.0236
     95 H          12.3108    4.5845    0.0000 H       1  UNL1        0.0236
     96 H          12.3809    4.6077    0.0000 H       1  UNL1        0.0236
     97 H          11.5056    4.5569    0.0000 H       1  UNL1        0.0236
     98 H          11.5563    3.6816    0.0000 H       1  UNL1        0.0236
     99 H          11.0477   -1.9506    0.0000 H       1  UNL1        0.0296
    100 H          10.3575   -1.5521    0.0000 H       1  UNL1        0.0296
    101 H           8.4651   -1.5427    0.0000 H       1  UNL1        0.0257
    102 H           7.8451   -2.1627    0.0000 H       1  UNL1        0.0257
    103 H           8.4651   -2.7827    0.0000 H       1  UNL1        0.0257
    104 H          10.3825   -3.2408    0.0000 H       1  UNL1        0.0308
    105 H          11.0728   -3.6393    0.0000 H       1  UNL1        0.0308
    106 H           8.5991   -3.0427    0.0000 H       1  UNL1        0.0938
    107 H          15.2352    4.3777    0.0000 H       1  UNL1        0.0937
    108 H           8.5991   -5.2827    0.0000 H       1  UNL1        0.0671
    109 H          15.9229    2.2459    0.0000 H       1  UNL1        0.0671
    110 H          12.2751   -2.4918    0.0000 H       1  UNL1        0.0571
    111 H           7.1962   -5.4727    0.0000 H       1  UNL1        0.0648
    112 H          17.3164    2.4958    0.0000 H       1  UNL1        0.0648
    113 H           6.8671   -3.0427    0.0000 H       1  UNL1        0.0647
    114 H          16.8836    4.9094    0.0000 H       1  UNL1        0.0647
    115 H           6.3301   -4.3527    0.0000 H       1  UNL1        0.0647
    116 H          17.7968    3.8276    0.0000 H       1  UNL1        0.0647
    117 H           9.4651   -5.7827    0.0000 H       1  UNL1        0.2101
    118 H          15.2522    1.5042    0.0000 H       1  UNL1        0.2101
    119 H           5.3905   -3.0550    0.0000 H       1  UNL1        0.0587
    120 H           5.7890   -3.7453    0.0000 H       1  UNL1        0.0587
    121 H          18.1254    4.5717    0.0000 H       1  UNL1        0.0584
    122 H          18.2927    5.3510    0.0000 H       1  UNL1        0.0584
    123 H           7.1962   -6.4727    0.0000 H       1  UNL1        0.2100
    124 H          17.6234    1.5441    0.0000 H       1  UNL1        0.2100
    125 H          13.4651   -4.5147    0.0000 H       1  UNL1        0.0274
    126 H          11.4282   -4.4508    0.0000 H       1  UNL1        0.0274
    127 H          11.6551   -5.2977    0.0000 H       1  UNL1        0.0274
    128 H          12.5021   -5.0708    0.0000 H       1  UNL1        0.0274
    129 H          14.0851   -3.8947    0.0000 H       1  UNL1        0.0274
    130 H          13.4651   -3.2747    0.0000 H       1  UNL1        0.0274
    131 H           5.4641   -4.8527    0.0000 H       1  UNL1        0.2100
    132 H          18.7745    3.6176    0.0000 H       1  UNL1        0.2100
    133 H          17.8535    6.4727    0.0000 H       1  UNL1        0.2095
    134 H           5.6720   -1.3527    0.0000 H       1  UNL1        0.0937
    135 H           5.1350   -0.0427    0.0000 H       1  UNL1        0.0671
    136 H           3.7320    0.1473    0.0000 H       1  UNL1        0.0647
    137 H           2.7924   -1.5550    0.0000 H       1  UNL1        0.0587
    138 H           3.1909   -2.2453    0.0000 H       1  UNL1        0.0587
    139 H           2.8660   -0.9727    0.0000 H       1  UNL1        0.0643
    140 H           6.0010    0.4573    0.0000 H       1  UNL1        0.2101
    141 H           3.7320    1.1473    0.0000 H       1  UNL1        0.2100
    142 H           2.0000   -0.4727    0.0000 H       1  UNL1        0.2100
@<TRIPOS>BOND
     1    35     1    1
     2    44     1    1
     3    36     2    1
     4    45     2    1
     5     3    38    2
     6     4    44    1
     7     4    51    1
     8     5    45    1
     9     5    52    1
    10    46     6    1
    11     6   117    1
    12    47     7    1
    13     7   118    1
    14    49     8    1
    15     8   123    1
    16    50     9    1
    17     9   124    1
    18    53    10    1
    19    10   131    1
    20    54    11    1
    21    11   132    1
    22    12    56    1
    23    60    12    1
    24    13    57    1
    25    13   133    1
    26    14    60    1
    27    14    63    1
    28    61    15    1
    29    15   140    1
    30    62    16    1
    31    16   141    1
    32    64    17    1
    33    17   142    1
    34    18    19    1
    35    18    20    1
    36    18    25    1
    37    18    33    1
    38    19    21    1
    39    19    27    1
    40    19    34    1
    41    20    22    1
    42    20    26    1
    43    20    65    1
    44    21    24    1
    45    21    28    1
    46    21    66    1
    47    22    23    1
    48    22    32    1
    49    22    38    1
    50    23    29    1
    51    23    31    1
    52    23    67    1
    53    24    30    1
    54    24    35    1
    55    24    68    1
    56    25    29    1
    57    25    69    1
    58    25    70    1
    59    26    28    1
    60    26    71    1
    61    26    72    1
    62    27    30    1
    63    27    73    1
    64    27    74    1
    65    28    75    1
    66    28    76    1
    67    29    77    1
    68    29    78    1
    69    30    79    1
    70    30    80    1
    71    31    36    1
    72    31    39    1
    73    31    40    1
    74    32    37    1
    75    32    81    1
    76    32    82    1
    77    33    83    1
    78    33    84    1
    79    33    85    1
    80    34    86    1
    81    34    87    1
    82    34    88    1
    83    35    41    1
    84    35    42    1
    85    36    37    1
    86    36    89    1
    87    37    90    1
    88    37    91    1
    89    38    92    1
    90    39    93    1
    91    39    94    1
    92    39    95    1
    93    40    96    1
    94    40    97    1
    95    40    98    1
    96    41    43    1
    97    41    99    1
    98    41   100    1
    99    42   101    1
   100    42   102    1
   101    42   103    1
   102    43    48    1
   103    43   104    1
   104    43   105    1
   105    44    46    1
   106    44   106    1
   107    45    47    1
   108    45   107    1
   109    46    49    1
   110    46   108    1
   111    47    50    1
   112    47   109    1
   113    48    55    2
   114    48   110    1
   115    49    53    1
   116    49   111    1
   117    50    54    1
   118    50   112    1
   119    51    53    1
   120    51    56    1
   121    51   113    1
   122    52    54    1
   123    52    57    1
   124    52   114    1
   125    53   115    1
   126    54   116    1
   127    55    58    1
   128    55    59    1
   129    56   119    1
   130    56   120    1
   131    57   121    1
   132    57   122    1
   133    58   125    1
   134    58   129    1
   135    58   130    1
   136    59   126    1
   137    59   127    1
   138    59   128    1
   139    60    61    1
   140    60   134    1
   141    61    62    1
   142    61   135    1
   143    62    64    1
   144    62   136    1
   145    63    64    1
   146    63   137    1
   147    63   138    1
   148    64   139    1
