@<TRIPOS>MOLECULE
IMPHY002760
 52 56 0 0 0
SMALL
GASTEIGER

@<TRIPOS>ATOM
      1 O           4.9386    1.0748    0.0000 O.3     1  UNL1       -0.3453
      2 O           3.7700   -1.7909    0.0000 O.3     1  UNL1       -0.4580
      3 O           6.0180    2.1444    0.0000 O.3     1  UNL1       -0.3621
      4 O           5.5783   -2.7720    0.0000 O.3     1  UNL1       -0.3875
      5 O           4.6520    2.7784    0.0000 O.3     1  UNL1       -0.3821
      6 O           7.3024    1.3633    0.0000 O.3     1  UNL1       -0.3834
      7 O           2.0000   -1.7667    0.0000 O.2     1  UNL1       -0.2508
      8 O           9.1371    0.3791    0.0000 O.2     1  UNL1       -0.2899
      9 C           4.6520   -0.2216    0.0000 C.3     1  UNL1        0.0491
     10 C           5.5180    0.2784    0.0000 C.3     1  UNL1        0.0364
     11 C           6.4278   -0.2096    0.0000 C.3     1  UNL1        0.0186
     12 C           5.5180    1.2784    0.0000 C.3     1  UNL1        0.2018
     13 C           4.6681   -1.2631    0.0000 C.3     1  UNL1        0.1380
     14 C           3.7860    0.2784    0.0000 C.3     1  UNL1        0.0041
     15 C           6.4521   -1.2418    0.0000 C.3     1  UNL1        0.0183
     16 C           4.5386    0.3820    0.0000 C.3     1  UNL1        0.0611
     17 C           5.5663   -1.7720    0.0000 C.3     1  UNL1        0.0997
     18 C           4.6520    1.7784    0.0000 C.3     1  UNL1        0.1301
     19 C           7.3375    0.3639    0.0000 C.3     1  UNL1        0.1234
     20 C           3.7860    1.2784    0.0000 C.2     1  UNL1       -0.0391
     21 C           2.8760   -0.2285    0.0000 C.3     1  UNL1        0.0522
     22 C           6.4043    0.7901    0.0000 C.3     1  UNL1       -0.0557
     23 C           7.3878   -1.7718    0.0000 C.2     1  UNL1       -0.0630
     24 C           2.8680   -1.2701    0.0000 C.2     1  UNL1        0.3080
     25 C           8.2851   -0.1444    0.0000 C.2     1  UNL1        0.1848
     26 C           8.3104   -1.2195    0.0000 C.2     1  UNL1       -0.0172
     27 C           2.9200    1.7784    0.0000 C.2     1  UNL1       -0.0966
     28 C           7.3998   -2.7718    0.0000 C.3     1  UNL1       -0.0430
     29 H           5.9430   -0.4577    0.0000 H       1  UNL1        0.0368
     30 H           4.6748   -2.1131    0.0000 H       1  UNL1        0.0767
     31 H           3.0499    0.7034    0.0000 H       1  UNL1        0.0359
     32 H           6.4623   -2.0917    0.0000 H       1  UNL1        0.0378
     33 H           4.1115    0.8314    0.0000 H       1  UNL1        0.0568
     34 H           3.9866    0.0996    0.0000 H       1  UNL1        0.0568
     35 H           5.0325   -2.0874    0.0000 H       1  UNL1        0.0636
     36 H           5.1889    2.0884    0.0000 H       1  UNL1        0.0695
     37 H           7.8638    0.6916    0.0000 H       1  UNL1        0.0682
     38 H           2.6714    0.3568    0.0000 H       1  UNL1        0.0384
     39 H           2.2643   -0.3298    0.0000 H       1  UNL1        0.0384
     40 H           7.0241    0.8047    0.0000 H       1  UNL1        0.0236
     41 H           6.3897    1.4099    0.0000 H       1  UNL1        0.0236
     42 H           5.7844    0.7755    0.0000 H       1  UNL1        0.0236
     43 H           5.7080    2.6813    0.0000 H       1  UNL1        0.2129
     44 H           8.8534   -1.5188    0.0000 H       1  UNL1        0.0653
     45 H           5.0451   -3.0884    0.0000 H       1  UNL1        0.2100
     46 H           2.9200    2.3984    0.0000 H       1  UNL1        0.0535
     47 H           2.3830    1.4684    0.0000 H       1  UNL1        0.0535
     48 H           4.1151    3.0884    0.0000 H       1  UNL1        0.2105
     49 H           6.7798   -2.7792    0.0000 H       1  UNL1        0.0275
     50 H           7.4072   -3.3917    0.0000 H       1  UNL1        0.0275
     51 H           8.0197   -2.7644    0.0000 H       1  UNL1        0.0275
     52 H           7.8281    1.6920    0.0000 H       1  UNL1        0.2104
@<TRIPOS>BOND
     1     1    12    1
     2     1    16    1
     3     2    13    1
     4     2    24    1
     5    12     3    1
     6     3    43    1
     7    17     4    1
     8     4    45    1
     9    18     5    1
    10     5    48    1
    11    19     6    1
    12     6    52    1
    13     7    24    2
    14     8    25    2
    15     9    10    1
    16     9    13    1
    17     9    14    1
    18     9    16    1
    19    10    11    1
    20    10    12    1
    21    10    29    1
    22    11    15    1
    23    11    19    1
    24    11    22    1
    25    12    18    1
    26    13    17    1
    27    13    30    1
    28    14    20    1
    29    14    21    1
    30    14    31    1
    31    15    17    1
    32    15    23    1
    33    15    32    1
    34    16    33    1
    35    16    34    1
    36    17    35    1
    37    18    20    1
    38    18    36    1
    39    19    25    1
    40    19    37    1
    41    20    27    2
    42    21    24    1
    43    21    38    1
    44    21    39    1
    45    22    40    1
    46    22    41    1
    47    22    42    1
    48    23    26    2
    49    23    28    1
    50    25    26    1
    51    26    44    1
    52    27    46    1
    53    27    47    1
    54    28    49    1
    55    28    50    1
    56    28    51    1
