@<TRIPOS>MOLECULE
IMPHY006862
 25 26 0 0 0
SMALL
GASTEIGER

@<TRIPOS>ATOM
      1 O           2.0000    1.6785    0.0000 O.2     1  UNL1       -0.2793
      2 N           3.6942    1.3184    0.0000 N.am    1  UNL1       -0.2969
      3 N           5.3692   -1.7694    0.0000 N.ar    1  UNL1       -0.2629
      4 C           4.5032    0.7306    0.0000 C.3     1  UNL1        0.0524
      5 C           5.3122    1.3184    0.0000 C.3     1  UNL1       -0.0287
      6 C           5.0032    2.2694    0.0000 C.3     1  UNL1       -0.0351
      7 C           4.0032    2.2694    0.0000 C.3     1  UNL1        0.0151
      8 C           4.5032   -0.2694    0.0000 C.ar    1  UNL1       -0.0089
      9 C           2.7431    1.0094    0.0000 C.2     1  UNL1        0.2030
     10 C           3.6372   -0.7694    0.0000 C.ar    1  UNL1       -0.0539
     11 C           5.3692   -0.7694    0.0000 C.ar    1  UNL1        0.0325
     12 C           3.6372   -1.7694    0.0000 C.ar    1  UNL1       -0.0433
     13 C           4.5032   -2.2694    0.0000 C.ar    1  UNL1        0.0276
     14 H           3.9508    0.4491    0.0000 H       1  UNL1        0.0551
     15 H           5.6222    0.7814    0.0000 H       1  UNL1        0.0287
     16 H           5.8786    1.5705    0.0000 H       1  UNL1        0.0287
     17 H           5.6097    2.3983    0.0000 H       1  UNL1        0.0281
     18 H           4.9384    2.8860    0.0000 H       1  UNL1        0.0281
     19 H           4.0680    2.8860    0.0000 H       1  UNL1        0.0465
     20 H           3.3968    2.3983    0.0000 H       1  UNL1        0.0465
     21 H           2.6142    0.4029    0.0000 H       1  UNL1        0.1253
     22 H           3.1003   -0.4594    0.0000 H       1  UNL1        0.0622
     23 H           5.9062   -0.4594    0.0000 H       1  UNL1        0.0833
     24 H           3.1003   -2.0794    0.0000 H       1  UNL1        0.0633
     25 H           4.5032   -2.8894    0.0000 H       1  UNL1        0.0829
@<TRIPOS>BOND
     1     1     9    2
     2     2     4    1
     3     2     7    1
     4     2     9   am
     5     3    11   ar
     6     3    13   ar
     7     4     5    1
     8     4     8    1
     9     4    14    1
    10     5     6    1
    11     5    15    1
    12     5    16    1
    13     6     7    1
    14     6    17    1
    15     6    18    1
    16     7    19    1
    17     7    20    1
    18     8    10   ar
    19     8    11   ar
    20     9    21    1
    21    10    12   ar
    22    10    22    1
    23    11    23    1
    24    12    13   ar
    25    12    24    1
    26    13    25    1
