@<TRIPOS>MOLECULE
IMPHY004973
 46 48 0 0 0
SMALL
GASTEIGER

@<TRIPOS>ATOM
      1 O           5.5301   -1.1633    0.0000 O.2     1  UNL1       -0.4542
      2 O           9.0602   -1.1875    0.0000 O.3     1  UNL1       -0.4946
      3 O           7.2785    1.8713    0.0000 O.3     1  UNL1       -0.5055
      4 O           5.5301    1.8367    0.0000 O.2     1  UNL1       -0.2863
      5 O           2.0000    0.8608    0.0000 O.3     1  UNL1       -0.4914
      6 O           2.0000   -1.1875    0.0000 O.3     1  UNL1       -0.5032
      7 C           6.3961    0.3367    0.0000 C.ar    1  UNL1        0.1063
      8 C           8.1962    0.3575    0.0000 C.ar    1  UNL1        0.0402
      9 C           6.3961   -0.6633    0.0000 C.ar    1  UNL1        0.1463
     10 C           7.2901    0.8713    0.0000 C.ar    1  UNL1        0.1381
     11 C           4.6641    0.3367    0.0000 C.ar    1  UNL1        0.0684
     12 C           9.0602    0.8608    0.0000 C.3     1  UNL1       -0.0023
     13 C           8.1962   -0.6841    0.0000 C.ar    1  UNL1        0.1305
     14 C           5.5301    0.8367    0.0000 C.ar    1  UNL1        0.2038
     15 C           4.6641   -0.6633    0.0000 C.ar    1  UNL1        0.1430
     16 C           7.2901   -1.1980    0.0000 C.ar    1  UNL1        0.0236
     17 C           3.7702    0.8713    0.0000 C.ar    1  UNL1       -0.0019
     18 C           3.7702   -1.1980    0.0000 C.ar    1  UNL1        0.0265
     19 C           9.9282    0.3642    0.0000 C.2     1  UNL1       -0.0807
     20 C           2.8641    0.3575    0.0000 C.ar    1  UNL1        0.1622
     21 C           2.8641   -0.6841    0.0000 C.ar    1  UNL1        0.1620
     22 C          10.7923    0.8675    0.0000 C.2     1  UNL1       -0.0793
     23 C          11.6602    0.3708    0.0000 C.3     1  UNL1       -0.0440
     24 C          10.7884    1.8675    0.0000 C.3     1  UNL1       -0.0440
     25 C           9.0564   -2.1875    0.0000 C.3     1  UNL1        0.0788
     26 C           2.0038    1.8608    0.0000 C.3     1  UNL1        0.0790
     27 H           9.4570    1.3373    0.0000 H       1  UNL1        0.0358
     28 H           8.6599    1.3342    0.0000 H       1  UNL1        0.0358
     29 H           7.2829   -1.8179    0.0000 H       1  UNL1        0.0691
     30 H           3.7773    1.4913    0.0000 H       1  UNL1        0.0663
     31 H           3.7773   -1.8179    0.0000 H       1  UNL1        0.0692
     32 H           9.9306   -0.2558    0.0000 H       1  UNL1        0.0575
     33 H           7.8118    2.1875    0.0000 H       1  UNL1        0.2922
     34 H          11.3523   -0.1673    0.0000 H       1  UNL1        0.0274
     35 H          11.4084    1.8699    0.0000 H       1  UNL1        0.0274
     36 H          10.7860    2.4875    0.0000 H       1  UNL1        0.0274
     37 H          10.1684    1.8651    0.0000 H       1  UNL1        0.0274
     38 H          12.1984    0.0629    0.0000 H       1  UNL1        0.0274
     39 H          11.9682    0.9090    0.0000 H       1  UNL1        0.0274
     40 H           8.4364   -2.1851    0.0000 H       1  UNL1        0.0660
     41 H           9.0540   -2.8075    0.0000 H       1  UNL1        0.0660
     42 H           9.6764   -2.1898    0.0000 H       1  UNL1        0.0660
     43 H           2.0024   -1.8075    0.0000 H       1  UNL1        0.2923
     44 H           2.6238    1.8584    0.0000 H       1  UNL1        0.0660
     45 H           2.0062    2.4808    0.0000 H       1  UNL1        0.0660
     46 H           1.3839    1.8632    0.0000 H       1  UNL1        0.0660
@<TRIPOS>BOND
     1     1     9   ar
     2     1    15   ar
     3     2    13    1
     4     2    25    1
     5     3    10    1
     6     3    33    1
     7     4    14    2
     8     5    20    1
     9     5    26    1
    10     6    21    1
    11     6    43    1
    12     7     9   ar
    13     7    10   ar
    14     7    14   ar
    15     8    10   ar
    16     8    12    1
    17     8    13   ar
    18     9    16   ar
    19    11    14   ar
    20    11    15   ar
    21    11    17   ar
    22    12    19    1
    23    12    27    1
    24    12    28    1
    25    13    16   ar
    26    15    18   ar
    27    16    29    1
    28    17    20   ar
    29    17    30    1
    30    18    21   ar
    31    18    31    1
    32    19    22    2
    33    19    32    1
    34    20    21   ar
    35    22    23    1
    36    22    24    1
    37    23    34    1
    38    23    38    1
    39    23    39    1
    40    24    35    1
    41    24    36    1
    42    24    37    1
    43    25    40    1
    44    25    41    1
    45    25    42    1
    46    26    44    1
    47    26    45    1
    48    26    46    1
