@<TRIPOS>MOLECULE
IMPHY006869
 55 57 0 0 0
SMALL
GASTEIGER

@<TRIPOS>ATOM
      1 S          11.2576   -2.0232    0.0000 S.3     1  UNL1       -0.0476
      2 O           6.8671   -0.9050    0.0000 O.3     1  UNL1       -0.3093
      3 O           6.0010    0.5950    0.0000 O.2     1  UNL1       -0.4699
      4 O           5.1350   -0.9050    0.0000 O.3     1  UNL1       -0.3404
      5 O           8.9900    2.8502    0.0000 O.3     1  UNL1       -0.3871
      6 O           6.8671   -2.9050    0.0000 O.3     1  UNL1       -0.3841
      7 O           5.1350   -3.9050    0.0000 O.3     1  UNL1       -0.3864
      8 O           3.4030   -2.9050    0.0000 O.3     1  UNL1       -0.3865
      9 O           9.9685   -0.8665    0.0000 O.3     1  UNL1       -0.4523
     10 O           2.5369   -1.4050    0.0000 O.3     1  UNL1       -0.3924
     11 O           6.0010    3.5950    0.0000 O.3     1  UNL1       -0.4773
     12 O           7.7331    3.5950    0.0000 O.2     1  UNL1       -0.2454
     13 O           9.6113   -2.5613    0.0000 O.2     1  UNL1       -0.2374
     14 C           7.7331    0.5950    0.0000 C.3     1  UNL1        0.0557
     15 C           7.7331    1.5950    0.0000 C.3     1  UNL1        0.0357
     16 C           6.8671    0.0950    0.0000 C.3     1  UNL1        0.2107
     17 C           8.6793    1.8997    0.0000 C.3     1  UNL1        0.0816
     18 C           8.6793    0.2903    0.0000 C.2     1  UNL1       -0.0244
     19 C           9.2629    1.0950    0.0000 C.2     1  UNL1       -0.0524
     20 C           6.8671    2.0950    0.0000 C.2     1  UNL1        0.0772
     21 C           6.0010   -1.4050    0.0000 C.3     1  UNL1        0.1918
     22 C           6.0010   -2.4050    0.0000 C.3     1  UNL1        0.1342
     23 C           5.1350   -2.9050    0.0000 C.3     1  UNL1        0.1141
     24 C           4.2690   -2.4050    0.0000 C.3     1  UNL1        0.1119
     25 C           4.2690   -1.4050    0.0000 C.3     1  UNL1        0.1130
     26 C           8.9900   -0.6603    0.0000 C.3     1  UNL1        0.1150
     27 C           6.0010    1.5950    0.0000 C.2     1  UNL1        0.0982
     28 C           3.4030   -0.9050    0.0000 C.3     1  UNL1        0.0730
     29 C           6.8671    3.0950    0.0000 C.2     1  UNL1        0.3361
     30 C          10.2791   -1.8170    0.0000 C.2     1  UNL1        0.3685
     31 C          11.5683   -2.9737    0.0000 C.3     1  UNL1       -0.0075
     32 H           7.8230   -0.2502    0.0000 H       1  UNL1        0.0414
     33 H           7.8230    2.4402    0.0000 H       1  UNL1        0.0388
     34 H           7.4040   -0.2150    0.0000 H       1  UNL1        0.1062
     35 H           8.2418    2.3391    0.0000 H       1  UNL1        0.0644
     36 H           9.8829    1.0950    0.0000 H       1  UNL1        0.0598
     37 H           6.0010   -0.7850    0.0000 H       1  UNL1        0.0939
     38 H           6.0010   -3.0250    0.0000 H       1  UNL1        0.0671
     39 H           4.5981   -3.2150    0.0000 H       1  UNL1        0.0648
     40 H           3.7320   -2.0950    0.0000 H       1  UNL1        0.0647
     41 H           4.2690   -0.7850    0.0000 H       1  UNL1        0.0647
     42 H           8.3762   -0.7476    0.0000 H       1  UNL1        0.0746
     43 H           8.9694   -1.2799    0.0000 H       1  UNL1        0.0746
     44 H           5.4641    1.9050    0.0000 H       1  UNL1        0.1029
     45 H           9.5966    2.9781    0.0000 H       1  UNL1        0.2102
     46 H           3.8015   -0.4301    0.0000 H       1  UNL1        0.0584
     47 H           3.0044   -0.4301    0.0000 H       1  UNL1        0.0584
     48 H           6.8671   -3.5250    0.0000 H       1  UNL1        0.2101
     49 H           4.5981   -4.2150    0.0000 H       1  UNL1        0.2100
     50 H           3.4030   -3.5250    0.0000 H       1  UNL1        0.2100
     51 H           2.0000   -1.0950    0.0000 H       1  UNL1        0.2095
     52 H           6.0010    4.2150    0.0000 H       1  UNL1        0.2954
     53 H          10.9790   -3.1663    0.0000 H       1  UNL1        0.0346
     54 H          11.7609   -3.5630    0.0000 H       1  UNL1        0.0346
     55 H          12.1576   -2.7811    0.0000 H       1  UNL1        0.0346
@<TRIPOS>BOND
     1     1    30    1
     2     1    31    1
     3    16     2    1
     4    21     2    1
     5     3    16    1
     6     3    27    1
     7     4    21    1
     8     4    25    1
     9    17     5    1
    10     5    45    1
    11    22     6    1
    12     6    48    1
    13    23     7    1
    14     7    49    1
    15    24     8    1
    16     8    50    1
    17     9    26    1
    18     9    30    1
    19    10    28    1
    20    10    51    1
    21    11    29    1
    22    11    52    1
    23    12    29    2
    24    13    30    2
    25    14    15    1
    26    14    16    1
    27    14    18    1
    28    14    32    1
    29    15    17    1
    30    15    20    1
    31    15    33    1
    32    16    34    1
    33    17    19    1
    34    17    35    1
    35    18    19    2
    36    18    26    1
    37    19    36    1
    38    20    27    2
    39    20    29    1
    40    21    22    1
    41    21    37    1
    42    22    23    1
    43    22    38    1
    44    23    24    1
    45    23    39    1
    46    24    25    1
    47    24    40    1
    48    25    28    1
    49    25    41    1
    50    26    42    1
    51    26    43    1
    52    27    44    1
    53    28    46    1
    54    28    47    1
    55    31    53    1
    56    31    54    1
    57    31    55    1
