@<TRIPOS>MOLECULE
IMPHY010436
 74 80 0 0 0
SMALL
GASTEIGER

@<TRIPOS>ATOM
      1 O           7.8725   -1.3704    0.0000 O.3     1  UNL1       -0.3395
      2 O           8.5634    0.0644    0.0000 O.3     1  UNL1       -0.3441
      3 O           6.1234   -1.8083    0.0000 O.3     1  UNL1       -0.4581
      4 O           8.6327    1.7574    0.0000 O.3     1  UNL1       -0.3790
      5 O           4.9163    2.0090    0.0000 O.3     1  UNL1       -0.3751
      6 O           9.0340    2.4669    0.0000 O.3     1  UNL1       -0.3793
      7 O           7.8120   -2.1937    0.0000 O.2     1  UNL1       -0.2512
      8 N           3.7210    0.1799    0.0000 N.3     1  UNL1       -0.2952
      9 C           5.6676    0.5752    0.0000 C.3     1  UNL1        0.0293
     10 C           7.1918   -0.6403    0.0000 C.3     1  UNL1        0.1542
     11 C           4.6656    0.4691    0.0000 C.3     1  UNL1        0.0547
     12 C           6.3459    1.1161    0.0000 C.3     1  UNL1       -0.0225
     13 C           7.5682    0.1414    0.0000 C.3     1  UNL1        0.1138
     14 C           5.6676   -0.2924    0.0000 C.3     1  UNL1        0.0191
     15 C           7.1918    0.9230    0.0000 C.3     1  UNL1        0.0213
     16 C           6.3459   -0.8333    0.0000 C.3     1  UNL1        0.1404
     17 C           4.9163   -0.7262    0.0000 C.3     1  UNL1        0.0057
     18 C           6.2682    1.9802    0.0000 C.3     1  UNL1       -0.0416
     19 C           7.0659    2.3212    0.0000 C.3     1  UNL1        0.0123
     20 C           7.6367    1.6678    0.0000 C.3     1  UNL1        0.0693
     21 C           4.9163    1.0090    0.0000 C.3     1  UNL1        0.0842
     22 C           8.2131    0.4113    0.0000 C.3     1  UNL1        0.0063
     23 C           8.2131    1.8958    0.0000 C.3     1  UNL1        0.0662
     24 C           3.7210   -0.5720    0.0000 C.3     1  UNL1        0.0085
     25 C           4.1649   -0.2924    0.0000 C.2     1  UNL1       -0.0780
     26 C           4.1649    0.5752    0.0000 C.2     1  UNL1       -0.0584
     27 C           8.7604   -0.9143    0.0000 C.3     1  UNL1        0.1501
     28 C           4.9163   -1.7262    0.0000 C.3     1  UNL1       -0.0545
     29 C           2.9170    0.7746    0.0000 C.3     1  UNL1       -0.0035
     30 C           2.0000    0.3757    0.0000 C.3     1  UNL1       -0.0523
     31 C           6.8564   -2.4884    0.0000 C.2     1  UNL1        0.3043
     32 C           9.2083    0.9397    0.0000 C.3     1  UNL1        0.0368
     33 C           4.0502    2.5089    0.0000 C.3     1  UNL1        0.0372
     34 C           8.9498    3.4634    0.0000 C.3     1  UNL1        0.0368
     35 C           6.6339   -3.4634    0.0000 C.3     1  UNL1        0.0332
     36 H           4.3537    1.2598    0.0000 H       1  UNL1        0.0500
     37 H           5.5643    1.4502    0.0000 H       1  UNL1        0.0312
     38 H           5.6041   -1.1400    0.0000 H       1  UNL1        0.0353
     39 H           8.0409    0.8849    0.0000 H       1  UNL1        0.0358
     40 H           6.7843   -1.2718    0.0000 H       1  UNL1        0.0768
     41 H           6.0854    2.5726    0.0000 H       1  UNL1        0.0272
     42 H           5.6598    1.8604    0.0000 H       1  UNL1        0.0272
     43 H           7.0452    3.1709    0.0000 H       1  UNL1        0.0351
     44 H           7.8676    2.2432    0.0000 H       1  UNL1        0.0603
     45 H           5.4532    1.3190    0.0000 H       1  UNL1        0.0646
     46 H           8.3750   -0.1872    0.0000 H       1  UNL1        0.0319
     47 H           8.8277    0.4930    0.0000 H       1  UNL1        0.0319
     48 H           8.1349    2.5109    0.0000 H       1  UNL1        0.0600
     49 H           3.1015   -0.5455    0.0000 H       1  UNL1        0.0435
     50 H           3.6680   -1.1897    0.0000 H       1  UNL1        0.0435
     51 H           3.6280   -0.6024    0.0000 H       1  UNL1        0.0576
     52 H           3.6280    0.8852    0.0000 H       1  UNL1        0.0595
     53 H           8.9919   -1.4894    0.0000 H       1  UNL1        0.0872
     54 H           9.3544   -0.7366    0.0000 H       1  UNL1        0.0872
     55 H           4.2963   -1.7262    0.0000 H       1  UNL1        0.0239
     56 H           4.9163   -2.3462    0.0000 H       1  UNL1        0.0239
     57 H           5.5363   -1.7262    0.0000 H       1  UNL1        0.0239
     58 H           3.3666    1.2015    0.0000 H       1  UNL1        0.0424
     59 H           2.5747    1.2916    0.0000 H       1  UNL1        0.0424
     60 H           1.7527    0.9442    0.0000 H       1  UNL1        0.0242
     61 H           1.4315    0.1284    0.0000 H       1  UNL1        0.0242
     62 H           2.2473   -0.1928    0.0000 H       1  UNL1        0.0242
     63 H           8.7013    0.5828    0.0000 H       1  UNL1        0.0524
     64 H           9.5652    0.4327    0.0000 H       1  UNL1        0.0524
     65 H           9.7153    1.2966    0.0000 H       1  UNL1        0.0524
     66 H           4.3602    3.0459    0.0000 H       1  UNL1        0.0524
     67 H           3.5133    2.8189    0.0000 H       1  UNL1        0.0524
     68 H           3.7402    1.9720    0.0000 H       1  UNL1        0.0524
     69 H           9.5676    3.5156    0.0000 H       1  UNL1        0.0524
     70 H           8.8976    4.0812    0.0000 H       1  UNL1        0.0524
     71 H           8.3320    3.4112    0.0000 H       1  UNL1        0.0524
     72 H           6.0295   -3.3254    0.0000 H       1  UNL1        0.0342
     73 H           6.4960   -4.0678    0.0000 H       1  UNL1        0.0342
     74 H           7.2384   -3.6013    0.0000 H       1  UNL1        0.0342
@<TRIPOS>BOND
     1    10     1    1
     2     1    27    1
     3    13     2    1
     4     2    27    1
     5    16     3    1
     6     3    31    1
     7    20     4    1
     8     4    32    1
     9    21     5    1
    10     5    33    1
    11    23     6    1
    12     6    34    1
    13     7    31    2
    14     8    11    1
    15     8    24    1
    16     8    29    1
    17     9    11    1
    18     9    12    1
    19     9    14    1
    20     9    21    1
    21    10    11    1
    22    10    13    1
    23    10    16    1
    24    11    36    1
    25    12    15    1
    26    12    18    1
    27    12    37    1
    28    13    15    1
    29    13    22    1
    30    14    16    1
    31    14    17    1
    32    14    38    1
    33    15    20    1
    34    15    39    1
    35    16    40    1
    36    17    24    1
    37    17    25    1
    38    17    28    1
    39    18    19    1
    40    18    41    1
    41    18    42    1
    42    19    20    1
    43    19    23    1
    44    19    43    1
    45    20    44    1
    46    21    26    1
    47    21    45    1
    48    22    23    1
    49    22    46    1
    50    22    47    1
    51    23    48    1
    52    24    49    1
    53    24    50    1
    54    25    26    2
    55    25    51    1
    56    26    52    1
    57    27    53    1
    58    27    54    1
    59    28    55    1
    60    28    56    1
    61    28    57    1
    62    29    30    1
    63    29    58    1
    64    29    59    1
    65    30    60    1
    66    30    61    1
    67    30    62    1
    68    31    35    1
    69    32    63    1
    70    32    64    1
    71    32    65    1
    72    33    66    1
    73    33    67    1
    74    33    68    1
    75    34    69    1
    76    34    70    1
    77    34    71    1
    78    35    72    1
    79    35    73    1
    80    35    74    1
