@<TRIPOS>MOLECULE
IMPHY017158
 33 32 0 0 0
SMALL
GASTEIGER

@<TRIPOS>ATOM
      1 O           3.7320   -1.0600    0.0000 O.2     1  UNL1       -0.2893
      2 O           2.0000   -0.0600    0.0000 O.2     1  UNL1       -0.2927
      3 C           8.0622    0.4400    0.0000 C.3     1  UNL1       -0.0531
      4 C           7.1962   -0.0600    0.0000 C.3     1  UNL1       -0.0530
      5 C           8.9282   -0.0600    0.0000 C.3     1  UNL1       -0.0531
      6 C           6.3301    0.4400    0.0000 C.3     1  UNL1       -0.0527
      7 C           9.7942    0.4400    0.0000 C.3     1  UNL1       -0.0533
      8 C           5.4641   -0.0600    0.0000 C.3     1  UNL1       -0.0460
      9 C          10.6603   -0.0600    0.0000 C.3     1  UNL1       -0.0559
     10 C           4.5981    0.4400    0.0000 C.3     1  UNL1        0.0131
     11 C          11.5263    0.4400    0.0000 C.3     1  UNL1       -0.0653
     12 C           3.7320   -0.0600    0.0000 C.2     1  UNL1        0.1949
     13 C           2.8660    0.4400    0.0000 C.2     1  UNL1        0.1852
     14 H           8.4607    0.9149    0.0000 H       1  UNL1        0.0265
     15 H           7.6636    0.9149    0.0000 H       1  UNL1        0.0265
     16 H           6.7976   -0.5349    0.0000 H       1  UNL1        0.0265
     17 H           7.5947   -0.5349    0.0000 H       1  UNL1        0.0265
     18 H           8.5297   -0.5349    0.0000 H       1  UNL1        0.0265
     19 H           9.3267   -0.5349    0.0000 H       1  UNL1        0.0265
     20 H           6.7287    0.9149    0.0000 H       1  UNL1        0.0265
     21 H           5.9316    0.9149    0.0000 H       1  UNL1        0.0265
     22 H          10.1928    0.9149    0.0000 H       1  UNL1        0.0265
     23 H           9.3957    0.9149    0.0000 H       1  UNL1        0.0265
     24 H           5.0656   -0.5349    0.0000 H       1  UNL1        0.0269
     25 H           5.8626   -0.5349    0.0000 H       1  UNL1        0.0269
     26 H          10.2617   -0.5349    0.0000 H       1  UNL1        0.0263
     27 H          11.0588   -0.5349    0.0000 H       1  UNL1        0.0263
     28 H           4.9966    0.9149    0.0000 H       1  UNL1        0.0346
     29 H           4.1996    0.9149    0.0000 H       1  UNL1        0.0346
     30 H          11.8363   -0.0969    0.0000 H       1  UNL1        0.0230
     31 H          12.0632    0.7500    0.0000 H       1  UNL1        0.0230
     32 H          11.2163    0.9769    0.0000 H       1  UNL1        0.0230
     33 H           2.8660    1.0600    0.0000 H       1  UNL1        0.1112
@<TRIPOS>BOND
     1     1    12    2
     2     2    13    2
     3     3     4    1
     4     3     5    1
     5     3    14    1
     6     3    15    1
     7     4     6    1
     8     4    16    1
     9     4    17    1
    10     5     7    1
    11     5    18    1
    12     5    19    1
    13     6     8    1
    14     6    20    1
    15     6    21    1
    16     7     9    1
    17     7    22    1
    18     7    23    1
    19     8    10    1
    20     8    24    1
    21     8    25    1
    22     9    11    1
    23     9    26    1
    24     9    27    1
    25    10    12    1
    26    10    28    1
    27    10    29    1
    28    11    30    1
    29    11    31    1
    30    11    32    1
    31    12    13    1
    32    13    33    1
