@<TRIPOS>MOLECULE
IMPHY008527
 38 38 0 0 0
SMALL
GASTEIGER

@<TRIPOS>ATOM
      1 O           2.5369   -1.2500    0.0000 O.3     1  UNL1       -0.3834
      2 O           6.0010   -3.2500    0.0000 O.2     1  UNL1       -0.2876
      3 O           6.8671    4.2500    0.0000 O.2     1  UNL1       -0.2961
      4 C           4.2690   -0.2500    0.0000 C.3     1  UNL1       -0.0193
      5 C           4.2690   -1.2500    0.0000 C.2     1  UNL1       -0.0312
      6 C           5.1350    0.2500    0.0000 C.3     1  UNL1       -0.0432
      7 C           3.4030   -1.7500    0.0000 C.3     1  UNL1        0.0957
      8 C           3.4030    0.2500    0.0000 C.3     1  UNL1       -0.0586
      9 C           5.1350    1.2500    0.0000 C.3     1  UNL1       -0.0336
     10 C           5.1350   -1.7500    0.0000 C.2     1  UNL1       -0.0125
     11 C           3.4030   -2.7500    0.0000 C.2     1  UNL1       -0.0453
     12 C           4.2690   -3.2500    0.0000 C.2     1  UNL1       -0.0050
     13 C           5.1350   -2.7500    0.0000 C.2     1  UNL1        0.1817
     14 C           6.0010    1.7500    0.0000 C.2     1  UNL1       -0.0780
     15 C           4.2690   -4.2500    0.0000 C.3     1  UNL1       -0.0363
     16 C           6.0010    2.7500    0.0000 C.2     1  UNL1       -0.0152
     17 C           5.1350    3.2500    0.0000 C.3     1  UNL1       -0.0370
     18 C           6.8671    3.2500    0.0000 C.2     1  UNL1        0.1457
     19 H           4.2690    0.3700    0.0000 H       1  UNL1        0.0344
     20 H           5.3471   -0.3326    0.0000 H       1  UNL1        0.0274
     21 H           5.7456    0.3577    0.0000 H       1  UNL1        0.0274
     22 H           3.4030   -1.1300    0.0000 H       1  UNL1        0.0685
     23 H           3.7130    0.7869    0.0000 H       1  UNL1        0.0235
     24 H           2.8660    0.5600    0.0000 H       1  UNL1        0.0235
     25 H           3.0930   -0.2869    0.0000 H       1  UNL1        0.0235
     26 H           4.9230    1.8326    0.0000 H       1  UNL1        0.0308
     27 H           4.5244    1.1423    0.0000 H       1  UNL1        0.0308
     28 H           5.6720   -1.4400    0.0000 H       1  UNL1        0.0656
     29 H           2.8660   -3.0600    0.0000 H       1  UNL1        0.0605
     30 H           6.5380    1.4400    0.0000 H       1  UNL1        0.0576
     31 H           2.0000   -1.5600    0.0000 H       1  UNL1        0.2107
     32 H           3.6490   -4.2500    0.0000 H       1  UNL1        0.0279
     33 H           4.2690   -4.8700    0.0000 H       1  UNL1        0.0279
     34 H           4.8890   -4.2500    0.0000 H       1  UNL1        0.0279
     35 H           5.4450    3.7869    0.0000 H       1  UNL1        0.0278
     36 H           4.5981    3.5600    0.0000 H       1  UNL1        0.0278
     37 H           4.8250    2.7131    0.0000 H       1  UNL1        0.0278
     38 H           7.4040    2.9400    0.0000 H       1  UNL1        0.1078
@<TRIPOS>BOND
     1     1     7    1
     2     1    31    1
     3     2    13    2
     4     3    18    2
     5     4     5    1
     6     4     6    1
     7     4     8    1
     8     4    19    1
     9     5     7    1
    10     5    10    2
    11     6     9    1
    12     6    20    1
    13     6    21    1
    14     7    11    1
    15     7    22    1
    16     8    23    1
    17     8    24    1
    18     8    25    1
    19     9    14    1
    20     9    26    1
    21     9    27    1
    22    10    13    1
    23    10    28    1
    24    11    12    2
    25    11    29    1
    26    12    13    1
    27    12    15    1
    28    14    16    2
    29    14    30    1
    30    15    32    1
    31    15    33    1
    32    15    34    1
    33    16    17    1
    34    16    18    1
    35    17    35    1
    36    17    36    1
    37    17    37    1
    38    18    38    1
