@<TRIPOS>MOLECULE
IMPHY009675
 46 48 0 0 0
SMALL
GASTEIGER

@<TRIPOS>ATOM
      1 O          11.0511    1.0052    0.0000 O.2     1  UNL1       -0.2917
      2 O           5.4641    0.2500    0.0000 O.3     1  UNL1       -0.4608
      3 O           4.5981   -1.2500    0.0000 O.2     1  UNL1       -0.2450
      4 C          11.3241   -0.7500    0.0000 C.3     1  UNL1        0.0233
      5 C          10.7404   -1.5547    0.0000 C.3     1  UNL1       -0.0174
      6 C           9.7942   -1.2500    0.0000 C.ar    1  UNL1       -0.0357
      7 C           9.7942   -0.2500    0.0000 C.ar    1  UNL1        0.0240
      8 C          10.7404    0.0547    0.0000 C.2     1  UNL1        0.1668
      9 C           8.9282    0.2500    0.0000 C.ar    1  UNL1       -0.0362
     10 C           8.0622   -0.2500    0.0000 C.ar    1  UNL1       -0.0377
     11 C           8.9282   -1.7500    0.0000 C.ar    1  UNL1       -0.0547
     12 C           8.0622   -1.2500    0.0000 C.ar    1  UNL1       -0.0466
     13 C          12.3241   -0.7500    0.0000 C.3     1  UNL1       -0.0551
     14 C           7.1962    0.2500    0.0000 C.3     1  UNL1        0.0073
     15 C           8.9282    1.2500    0.0000 C.3     1  UNL1       -0.0388
     16 C           7.1962   -1.7500    0.0000 C.3     1  UNL1       -0.0394
     17 C           6.3301   -0.2500    0.0000 C.3     1  UNL1        0.0968
     18 C           4.5981   -0.2500    0.0000 C.2     1  UNL1        0.3392
     19 C           3.7320    0.2500    0.0000 C.ar    1  UNL1        0.0590
     20 C           3.7320    1.2500    0.0000 C.ar    1  UNL1       -0.0478
     21 C           2.8660   -0.2500    0.0000 C.ar    1  UNL1       -0.0478
     22 C           2.8660    1.7500    0.0000 C.ar    1  UNL1       -0.0610
     23 C           2.0000    0.2500    0.0000 C.ar    1  UNL1       -0.0610
     24 C           2.0000    1.2500    0.0000 C.ar    1  UNL1       -0.0617
     25 H          11.6058   -1.3023    0.0000 H       1  UNL1        0.0381
     26 H          10.4894   -2.1216    0.0000 H       1  UNL1        0.0320
     27 H          11.2778   -1.8640    0.0000 H       1  UNL1        0.0320
     28 H           8.9282   -2.3700    0.0000 H       1  UNL1        0.0623
     29 H          12.3241   -1.3700    0.0000 H       1  UNL1        0.0237
     30 H          12.9441   -0.7500    0.0000 H       1  UNL1        0.0237
     31 H          12.3241   -0.1300    0.0000 H       1  UNL1        0.0237
     32 H           7.5947    0.7249    0.0000 H       1  UNL1        0.0346
     33 H           6.7976    0.7249    0.0000 H       1  UNL1        0.0346
     34 H           9.5482    1.2500    0.0000 H       1  UNL1        0.0278
     35 H           8.9282    1.8700    0.0000 H       1  UNL1        0.0278
     36 H           8.3082    1.2500    0.0000 H       1  UNL1        0.0278
     37 H           6.8862   -1.2131    0.0000 H       1  UNL1        0.0278
     38 H           6.6592   -2.0600    0.0000 H       1  UNL1        0.0278
     39 H           7.5062   -2.2869    0.0000 H       1  UNL1        0.0278
     40 H           5.9316   -0.7249    0.0000 H       1  UNL1        0.0701
     41 H           6.7287   -0.7249    0.0000 H       1  UNL1        0.0701
     42 H           4.2690    1.5600    0.0000 H       1  UNL1        0.0626
     43 H           2.8660   -0.8700    0.0000 H       1  UNL1        0.0626
     44 H           2.8660    2.3700    0.0000 H       1  UNL1        0.0618
     45 H           1.4631   -0.0600    0.0000 H       1  UNL1        0.0618
     46 H           1.4631    1.5600    0.0000 H       1  UNL1        0.0618
@<TRIPOS>BOND
     1     1     8    2
     2     2    17    1
     3     2    18    1
     4     3    18    2
     5     4     5    1
     6     4     8    1
     7     4    13    1
     8     4    25    1
     9     5     6    1
    10     5    26    1
    11     5    27    1
    12     6     7   ar
    13     6    11   ar
    14     7     8    1
    15     7     9   ar
    16     9    10   ar
    17     9    15    1
    18    10    12   ar
    19    10    14    1
    20    11    12   ar
    21    11    28    1
    22    12    16    1
    23    13    29    1
    24    13    30    1
    25    13    31    1
    26    14    17    1
    27    14    32    1
    28    14    33    1
    29    15    34    1
    30    15    35    1
    31    15    36    1
    32    16    37    1
    33    16    38    1
    34    16    39    1
    35    17    40    1
    36    17    41    1
    37    18    19    1
    38    19    20   ar
    39    19    21   ar
    40    20    22   ar
    41    20    42    1
    42    21    23   ar
    43    21    43    1
    44    22    24   ar
    45    22    44    1
    46    23    24   ar
    47    23    45    1
    48    24    46    1
