@<TRIPOS>MOLECULE
IMPHY009210
 83 88 0 0 0
SMALL
GASTEIGER

@<TRIPOS>ATOM
      1 O           7.5330    0.8748    0.0000 O.3     1  UNL1       -0.3719
      2 O           7.6464    3.2712    0.0000 O.3     1  UNL1       -0.3911
      3 O           2.1233   -2.9612    0.0000 O.3     1  UNL1       -0.3912
      4 C           6.7804    0.7712    0.0000 C.3     1  UNL1        0.0053
      5 C           7.6464    0.2712    0.0000 C.3     1  UNL1        0.0790
      6 C           5.8704    0.2643    0.0000 C.3     1  UNL1       -0.0206
      7 C           8.5124    0.7712    0.0000 C.3     1  UNL1       -0.0008
      8 C           8.5124    1.7712    0.0000 C.3     1  UNL1        0.0255
      9 C           5.8623   -0.7773    0.0000 C.3     1  UNL1       -0.0293
     10 C           4.9269   -1.3270    0.0000 C.3     1  UNL1       -0.0252
     11 C           6.7804    1.7712    0.0000 C.3     1  UNL1       -0.0177
     12 C           7.6624   -0.7703    0.0000 C.3     1  UNL1       -0.0226
     13 C           7.6464    2.2712    0.0000 C.3     1  UNL1        0.0639
     14 C           6.7644   -1.2981    0.0000 C.3     1  UNL1       -0.0466
     15 C           3.9873   -0.7845    0.0000 C.3     1  UNL1       -0.0278
     16 C           4.9435    0.8284    0.0000 C.3     1  UNL1       -0.0465
     17 C           7.9330    1.5676    0.0000 C.3     1  UNL1        0.0567
     18 C           9.4064    0.2365    0.0000 C.3     1  UNL1       -0.0417
     19 C           9.4064    2.3058    0.0000 C.3     1  UNL1       -0.0421
     20 C           3.9956    0.3005    0.0000 C.3     1  UNL1       -0.0486
     21 C           6.1376    1.5372    0.0000 C.3     1  UNL1       -0.0563
     22 C           5.5356    1.2066    0.0000 C.3     1  UNL1       -0.0587
     23 C          10.3124    0.7504    0.0000 C.3     1  UNL1       -0.0345
     24 C           2.9999   -1.3344    0.0000 C.3     1  UNL1       -0.0056
     25 C           4.9443   -2.4570    0.0000 C.3     1  UNL1       -0.0447
     26 C          10.3124    1.7920    0.0000 C.3     1  UNL1       -0.0472
     27 C           5.7929   -1.8270    0.0000 C.3     1  UNL1       -0.0590
     28 C           2.9912   -2.4645    0.0000 C.3     1  UNL1        0.0606
     29 C           3.9700   -3.0296    0.0000 C.3     1  UNL1       -0.0258
     30 C          11.3124    0.7465    0.0000 C.3     1  UNL1       -0.0598
     31 C          10.8091   -0.1176    0.0000 C.3     1  UNL1       -0.0598
     32 C           2.0000   -1.3228    0.0000 C.3     1  UNL1       -0.0572
     33 C           2.5100   -0.4627    0.0000 C.3     1  UNL1       -0.0572
     34 H           8.5124   -0.0788    0.0000 H       1  UNL1        0.0336
     35 H           5.8656   -1.6272    0.0000 H       1  UNL1        0.0312
     36 H           6.5683    2.3538    0.0000 H       1  UNL1        0.0297
     37 H           6.1698    1.6635    0.0000 H       1  UNL1        0.0297
     38 H           7.8805   -1.3507    0.0000 H       1  UNL1        0.0293
     39 H           8.2716   -0.6548    0.0000 H       1  UNL1        0.0293
     40 H           8.1833    2.5812    0.0000 H       1  UNL1        0.0600
     41 H           6.3671   -1.7740    0.0000 H       1  UNL1        0.0269
     42 H           7.1654   -1.7710    0.0000 H       1  UNL1        0.0269
     43 H           3.2561   -0.3510    0.0000 H       1  UNL1        0.0312
     44 H           5.3517    1.2951    0.0000 H       1  UNL1        0.0271
     45 H           4.5536    1.3105    0.0000 H       1  UNL1        0.0271
     46 H           7.9016    2.1868    0.0000 H       1  UNL1        0.0566
     47 H           7.3302    1.7128    0.0000 H       1  UNL1        0.0566
     48 H           9.0018   -0.2333    0.0000 H       1  UNL1        0.0274
     49 H           9.8000   -0.2425    0.0000 H       1  UNL1        0.0274
     50 H           9.8000    2.7849    0.0000 H       1  UNL1        0.0272
     51 H           9.0018    2.7756    0.0000 H       1  UNL1        0.0272
     52 H           3.7911    0.8858    0.0000 H       1  UNL1        0.0268
     53 H           3.3840    0.1991    0.0000 H       1  UNL1        0.0268
     54 H           6.6125    1.9358    0.0000 H       1  UNL1        0.0236
     55 H           5.7390    2.0122    0.0000 H       1  UNL1        0.0236
     56 H           5.6626    1.1387    0.0000 H       1  UNL1        0.0236
     57 H           6.1198    1.4142    0.0000 H       1  UNL1        0.0235
     58 H           5.3280    1.7909    0.0000 H       1  UNL1        0.0235
     59 H           4.9514    0.9991    0.0000 H       1  UNL1        0.0235
     60 H           5.1624   -3.0374    0.0000 H       1  UNL1        0.0271
     61 H           5.5535   -2.3415    0.0000 H       1  UNL1        0.0271
     62 H          10.9233    1.6859    0.0000 H       1  UNL1        0.0271
     63 H          10.5215    2.3757    0.0000 H       1  UNL1        0.0271
     64 H           5.4829   -2.3639    0.0000 H       1  UNL1        0.0235
     65 H           6.3299   -2.1370    0.0000 H       1  UNL1        0.0235
     66 H           6.1029   -1.2900    0.0000 H       1  UNL1        0.0235
     67 H           2.9900   -3.0845    0.0000 H       1  UNL1        0.0599
     68 H           3.5727   -3.5056    0.0000 H       1  UNL1        0.0290
     69 H           4.3709   -3.5025    0.0000 H       1  UNL1        0.0290
     70 H           7.1095    3.5812    0.0000 H       1  UNL1        0.2098
     71 H          10.2710   -0.4255    0.0000 H       1  UNL1        0.0235
     72 H          11.1170   -0.6557    0.0000 H       1  UNL1        0.0235
     73 H          11.3472    0.1904    0.0000 H       1  UNL1        0.0235
     74 H          11.3100    0.1265    0.0000 H       1  UNL1        0.0235
     75 H          11.9324    0.7441    0.0000 H       1  UNL1        0.0235
     76 H          11.3148    1.3665    0.0000 H       1  UNL1        0.0235
     77 H           2.0072   -0.7029    0.0000 H       1  UNL1        0.0236
     78 H           1.3800   -1.3157    0.0000 H       1  UNL1        0.0236
     79 H           1.9928   -1.9428    0.0000 H       1  UNL1        0.0236
     80 H           3.0505   -0.1589    0.0000 H       1  UNL1        0.0236
     81 H           2.2062    0.0778    0.0000 H       1  UNL1        0.0236
     82 H           1.9695   -0.7664    0.0000 H       1  UNL1        0.0236
     83 H           2.1209   -3.5812    0.0000 H       1  UNL1        0.2098
@<TRIPOS>BOND
     1     1     5    1
     2     1    17    1
     3    13     2    1
     4     2    70    1
     5    28     3    1
     6     3    83    1
     7     4     5    1
     8     4     6    1
     9     4    11    1
    10     4    21    1
    11     5     7    1
    12     5    12    1
    13     6     9    1
    14     6    16    1
    15     6    22    1
    16     7     8    1
    17     7    18    1
    18     7    34    1
    19     8    13    1
    20     8    17    1
    21     8    19    1
    22     9    10    1
    23     9    14    1
    24     9    35    1
    25    10    15    1
    26    10    25    1
    27    10    27    1
    28    11    13    1
    29    11    36    1
    30    11    37    1
    31    12    14    1
    32    12    38    1
    33    12    39    1
    34    13    40    1
    35    14    41    1
    36    14    42    1
    37    15    20    1
    38    15    24    1
    39    15    43    1
    40    16    20    1
    41    16    44    1
    42    16    45    1
    43    17    46    1
    44    17    47    1
    45    18    23    1
    46    18    48    1
    47    18    49    1
    48    19    26    1
    49    19    50    1
    50    19    51    1
    51    20    52    1
    52    20    53    1
    53    21    54    1
    54    21    55    1
    55    21    56    1
    56    22    57    1
    57    22    58    1
    58    22    59    1
    59    23    26    1
    60    23    30    1
    61    23    31    1
    62    24    28    1
    63    24    32    1
    64    24    33    1
    65    25    29    1
    66    25    60    1
    67    25    61    1
    68    26    62    1
    69    26    63    1
    70    27    64    1
    71    27    65    1
    72    27    66    1
    73    28    29    1
    74    28    67    1
    75    29    68    1
    76    29    69    1
    77    30    74    1
    78    30    75    1
    79    30    76    1
    80    31    71    1
    81    31    72    1
    82    31    73    1
    83    32    77    1
    84    32    78    1
    85    32    79    1
    86    33    80    1
    87    33    81    1
    88    33    82    1
