@<TRIPOS>MOLECULE
IMPHY012262
 29 29 0 0 0
SMALL
GASTEIGER

@<TRIPOS>ATOM
      1 O           3.7320    2.5950    0.0000 O.3     1  UNL1       -0.3947
      2 C           2.8660    0.0950    0.0000 C.3     1  UNL1       -0.0327
      3 C           2.8660    1.0950    0.0000 C.3     1  UNL1       -0.0175
      4 C           2.0000   -0.4050    0.0000 C.3     1  UNL1       -0.0459
      5 C           3.7320   -0.4050    0.0000 C.3     1  UNL1       -0.0314
      6 C           2.0000   -1.4050    0.0000 C.3     1  UNL1       -0.0317
      7 C           2.8660   -1.9050    0.0000 C.2     1  UNL1       -0.0765
      8 C           3.7320   -1.4050    0.0000 C.2     1  UNL1       -0.0848
      9 C           3.7320    1.5950    0.0000 C.3     1  UNL1        0.0470
     10 C           2.0000    1.5950    0.0000 C.3     1  UNL1       -0.0601
     11 C           2.8660   -2.9050    0.0000 C.3     1  UNL1       -0.0438
     12 H           3.4030    0.4050    0.0000 H       1  UNL1        0.0307
     13 H           2.8660    1.7150    0.0000 H       1  UNL1        0.0323
     14 H           1.7880    0.1776    0.0000 H       1  UNL1        0.0271
     15 H           1.3894   -0.5127    0.0000 H       1  UNL1        0.0271
     16 H           4.3426   -0.5127    0.0000 H       1  UNL1        0.0310
     17 H           3.9441    0.1776    0.0000 H       1  UNL1        0.0310
     18 H           1.3894   -1.2973    0.0000 H       1  UNL1        0.0310
     19 H           1.7880   -1.9876    0.0000 H       1  UNL1        0.0310
     20 H           4.2690   -1.7150    0.0000 H       1  UNL1        0.0572
     21 H           3.9441    1.0124    0.0000 H       1  UNL1        0.0560
     22 H           4.3426    1.7027    0.0000 H       1  UNL1        0.0560
     23 H           2.3100    2.1319    0.0000 H       1  UNL1        0.0233
     24 H           1.4631    1.9050    0.0000 H       1  UNL1        0.0233
     25 H           1.6900    1.0581    0.0000 H       1  UNL1        0.0233
     26 H           2.2460   -2.9050    0.0000 H       1  UNL1        0.0274
     27 H           2.8660   -3.5250    0.0000 H       1  UNL1        0.0274
     28 H           3.4860   -2.9050    0.0000 H       1  UNL1        0.0274
     29 H           4.2690    2.9050    0.0000 H       1  UNL1        0.2094
@<TRIPOS>BOND
     1     1     9    1
     2     1    29    1
     3     2     3    1
     4     2     4    1
     5     2     5    1
     6     2    12    1
     7     3     9    1
     8     3    10    1
     9     3    13    1
    10     4     6    1
    11     4    14    1
    12     4    15    1
    13     5     8    1
    14     5    16    1
    15     5    17    1
    16     6     7    1
    17     6    18    1
    18     6    19    1
    19     7     8    2
    20     7    11    1
    21     8    20    1
    22     9    21    1
    23     9    22    1
    24    10    23    1
    25    10    24    1
    26    10    25    1
    27    11    26    1
    28    11    27    1
    29    11    28    1
