@<TRIPOS>MOLECULE
IMPHY004763
 49 52 0 0 0
SMALL
GASTEIGER

@<TRIPOS>ATOM
      1 O           5.1350   -1.3729    0.0000 O.3     1  UNL1       -0.3221
      2 O           6.8671   -1.3729    0.0000 O.3     1  UNL1       -0.4606
      3 O           5.1350   -4.3729    0.0000 O.3     1  UNL1       -0.3863
      4 O           6.8671   -3.3729    0.0000 O.3     1  UNL1       -0.3829
      5 O           3.4030   -3.3729    0.0000 O.3     1  UNL1       -0.3860
      6 O           2.5369   -1.8729    0.0000 O.3     1  UNL1       -0.4788
      7 O           3.4030   -0.3729    0.0000 O.2     1  UNL1       -0.2480
      8 O           8.6230    1.6896    0.0000 O.2     1  UNL1       -0.4544
      9 O           5.1208    1.7062    0.0000 O.3     1  UNL1       -0.5058
     10 O           6.0308    3.1996    0.0000 O.2     1  UNL1       -0.2869
     11 C           5.1350   -3.3729    0.0000 C.3     1  UNL1        0.1157
     12 C           6.0010   -2.8729    0.0000 C.3     1  UNL1        0.1455
     13 C           4.2690   -2.8729    0.0000 C.3     1  UNL1        0.1202
     14 C           4.2690   -1.8729    0.0000 C.3     1  UNL1        0.1869
     15 C           6.0010   -1.8729    0.0000 C.3     1  UNL1        0.2312
     16 C           3.4030   -1.3729    0.0000 C.2     1  UNL1        0.3367
     17 C           6.8671   -0.3729    0.0000 C.ar    1  UNL1        0.1310
     18 C           7.7671    0.1514    0.0000 C.ar    1  UNL1        0.0235
     19 C           5.9670    0.1514    0.0000 C.ar    1  UNL1        0.0226
     20 C           7.7551    1.1930    0.0000 C.ar    1  UNL1        0.1462
     21 C           6.8910    1.6963    0.0000 C.ar    1  UNL1        0.1055
     22 C           5.9790    1.1930    0.0000 C.ar    1  UNL1        0.1347
     23 C           6.8948    2.6963    0.0000 C.ar    1  UNL1        0.1966
     24 C           8.6269    2.6896    0.0000 C.ar    1  UNL1        0.1392
     25 C           7.7628    3.1929    0.0000 C.ar    1  UNL1        0.0288
     26 C           9.4948    3.1862    0.0000 C.ar    1  UNL1        0.0174
     27 C          10.3589    2.6829    0.0000 C.ar    1  UNL1       -0.0511
     28 C           9.4987    4.1862    0.0000 C.ar    1  UNL1       -0.0511
     29 C          11.2269    3.1796    0.0000 C.ar    1  UNL1       -0.0611
     30 C          10.3666    4.6829    0.0000 C.ar    1  UNL1       -0.0611
     31 C          11.2307    4.1796    0.0000 C.ar    1  UNL1       -0.0617
     32 H           4.5981   -3.6829    0.0000 H       1  UNL1        0.0648
     33 H           6.0010   -3.4929    0.0000 H       1  UNL1        0.0683
     34 H           3.7320   -2.5629    0.0000 H       1  UNL1        0.0652
     35 H           6.0010   -1.2529    0.0000 H       1  UNL1        0.1084
     36 H           4.2690   -1.2529    0.0000 H       1  UNL1        0.0742
     37 H           5.6720   -4.6829    0.0000 H       1  UNL1        0.2100
     38 H           7.4040   -3.0629    0.0000 H       1  UNL1        0.2102
     39 H           3.4030   -3.9929    0.0000 H       1  UNL1        0.2100
     40 H           8.3064   -0.1545    0.0000 H       1  UNL1        0.0691
     41 H           5.4277   -0.1545    0.0000 H       1  UNL1        0.0691
     42 H           2.0000   -1.5629    0.0000 H       1  UNL1        0.2951
     43 H           7.7652    3.8129    0.0000 H       1  UNL1        0.0693
     44 H           4.5792    1.4046    0.0000 H       1  UNL1        0.2922
     45 H          10.3565    2.0629    0.0000 H       1  UNL1        0.0625
     46 H           8.9630    4.4983    0.0000 H       1  UNL1        0.0625
     47 H          11.7626    2.8675    0.0000 H       1  UNL1        0.0618
     48 H          10.3690    5.3029    0.0000 H       1  UNL1        0.0618
     49 H          11.7688    4.4875    0.0000 H       1  UNL1        0.0618
@<TRIPOS>BOND
     1     1    14    1
     2     1    15    1
     3    15     2    1
     4     2    17    1
     5    11     3    1
     6     3    37    1
     7    12     4    1
     8     4    38    1
     9    13     5    1
    10     5    39    1
    11     6    16    1
    12     6    42    1
    13     7    16    2
    14     8    20   ar
    15     8    24   ar
    16     9    22    1
    17     9    44    1
    18    10    23    2
    19    11    12    1
    20    11    13    1
    21    11    32    1
    22    12    15    1
    23    12    33    1
    24    13    14    1
    25    13    34    1
    26    14    16    1
    27    14    36    1
    28    15    35    1
    29    17    18   ar
    30    17    19   ar
    31    18    20   ar
    32    18    40    1
    33    19    22   ar
    34    19    41    1
    35    20    21   ar
    36    21    22   ar
    37    21    23   ar
    38    23    25   ar
    39    24    25   ar
    40    24    26    1
    41    25    43    1
    42    26    27   ar
    43    26    28   ar
    44    27    29   ar
    45    27    45    1
    46    28    30   ar
    47    28    46    1
    48    29    31   ar
    49    29    47    1
    50    30    31   ar
    51    30    48    1
    52    31    49    1
