@<TRIPOS>MOLECULE
IMPHY014922
 39 39 0 0 0
SMALL
GASTEIGER

@<TRIPOS>ATOM
      1 C           5.4383    1.4007    0.0000 C.3     1  UNL1       -0.0166
      2 C           5.8537    0.4911    0.0000 C.3     1  UNL1       -0.0441
      3 C           5.7114   -0.4987    0.0000 C.3     1  UNL1       -0.0486
      4 C           5.0565   -1.2545    0.0000 C.3     1  UNL1       -0.0320
      5 C           6.4337    1.3056    0.0000 C.3     1  UNL1       -0.0563
      6 C           5.9789    2.2420    0.0000 C.3     1  UNL1       -0.0563
      7 C           4.5970    1.9414    0.0000 C.2     1  UNL1       -0.0781
      8 C           4.0970   -1.5362    0.0000 C.2     1  UNL1       -0.0765
      9 C           3.5970    1.9414    0.0000 C.2     1  UNL1       -0.0625
     10 C           2.4826   -0.4987    0.0000 C.3     1  UNL1       -0.0305
     11 C           2.3403    0.4911    0.0000 C.3     1  UNL1       -0.0248
     12 C           3.1375   -1.2545    0.0000 C.2     1  UNL1       -0.0847
     13 C           2.7558    1.4007    0.0000 C.2     1  UNL1       -0.0544
     14 C           4.0970   -2.5362    0.0000 C.3     1  UNL1       -0.0438
     15 C           2.0000    2.0556    0.0000 C.2     1  UNL1       -0.0955
     16 H           6.4048    0.2070    0.0000 H       1  UNL1        0.0273
     17 H           5.2400    0.4028    0.0000 H       1  UNL1        0.0273
     18 H           6.0214   -1.0357    0.0000 H       1  UNL1        0.0269
     19 H           5.1474   -0.2412    0.0000 H       1  UNL1        0.0269
     20 H           5.0270   -1.8738    0.0000 H       1  UNL1        0.0310
     21 H           4.7213   -0.7329    0.0000 H       1  UNL1        0.0310
     22 H           6.3748    0.6885    0.0000 H       1  UNL1        0.0238
     23 H           7.0509    1.2467    0.0000 H       1  UNL1        0.0238
     24 H           6.4927    1.9228    0.0000 H       1  UNL1        0.0238
     25 H           6.5005    1.9068    0.0000 H       1  UNL1        0.0238
     26 H           6.3141    2.7635    0.0000 H       1  UNL1        0.0238
     27 H           5.4573    2.5772    0.0000 H       1  UNL1        0.0238
     28 H           4.7717    2.5362    0.0000 H       1  UNL1        0.0578
     29 H           3.4223    2.5362    0.0000 H       1  UNL1        0.0617
     30 H           1.8738   -0.3814    0.0000 H       1  UNL1        0.0311
     31 H           3.0466   -0.2412    0.0000 H       1  UNL1        0.0311
     32 H           1.8916    0.9189    0.0000 H       1  UNL1        0.0316
     33 H           2.9540    0.4028    0.0000 H       1  UNL1        0.0316
     34 H           2.8023   -1.7761    0.0000 H       1  UNL1        0.0572
     35 H           3.4770   -2.5362    0.0000 H       1  UNL1        0.0274
     36 H           4.0970   -3.1562    0.0000 H       1  UNL1        0.0274
     37 H           4.7170   -2.5362    0.0000 H       1  UNL1        0.0274
     38 H           2.1173    2.6644    0.0000 H       1  UNL1        0.0537
     39 H           1.4141    1.8528    0.0000 H       1  UNL1        0.0537
@<TRIPOS>BOND
     1     1     2    1
     2     1     5    1
     3     1     6    1
     4     1     7    1
     5     2     3    1
     6     2    16    1
     7     2    17    1
     8     3     4    1
     9     3    18    1
    10     3    19    1
    11     4     8    1
    12     4    20    1
    13     4    21    1
    14     5    22    1
    15     5    23    1
    16     5    24    1
    17     6    25    1
    18     6    26    1
    19     6    27    1
    20     7     9    2
    21     7    28    1
    22     8    12    2
    23     8    14    1
    24     9    13    1
    25     9    29    1
    26    10    11    1
    27    10    12    1
    28    10    30    1
    29    10    31    1
    30    11    13    1
    31    11    32    1
    32    11    33    1
    33    12    34    1
    34    13    15    2
    35    14    35    1
    36    14    36    1
    37    14    37    1
    38    15    38    1
    39    15    39    1
