@<TRIPOS>MOLECULE
IMPHY013355
 41 43 0 0 0
SMALL
GASTEIGER

@<TRIPOS>ATOM
      1 O           3.5836   -0.0387    0.0000 O.3     1  UNL1       -0.4571
      2 O           4.8698    2.0582    0.0000 O.3     1  UNL1       -0.3884
      3 O           8.0321   -0.3466    0.0000 O.3     1  UNL1       -0.3912
      4 O           2.0000   -0.8435    0.0000 O.2     1  UNL1       -0.2453
      5 C           6.2619   -0.3435    0.0000 C.3     1  UNL1        0.0027
      6 C           5.3958    0.1565    0.0000 C.3     1  UNL1        0.0330
      7 C           4.5298   -0.3435    0.0000 C.3     1  UNL1        0.1163
      8 C           5.3798    1.1980    0.0000 C.3     1  UNL1        0.0702
      9 C           6.2619   -1.3435    0.0000 C.3     1  UNL1       -0.0441
     10 C           7.1719    0.1634    0.0000 C.3     1  UNL1        0.0612
     11 C           4.5298   -1.3435    0.0000 C.3     1  UNL1        0.0278
     12 C           5.3958   -1.8435    0.0000 C.3     1  UNL1       -0.0420
     13 C           6.2778    1.7258    0.0000 C.3     1  UNL1       -0.0215
     14 C           7.1799    1.2050    0.0000 C.3     1  UNL1       -0.0237
     15 C           7.1279   -0.8435    0.0000 C.3     1  UNL1       -0.0567
     16 C           4.3799    1.1865    0.0000 C.3     1  UNL1       -0.0357
     17 C           3.5836   -1.6482    0.0000 C.2     1  UNL1        0.0361
     18 C           3.0000   -0.8435    0.0000 C.2     1  UNL1        0.3353
     19 C           3.2729   -2.5987    0.0000 C.2     1  UNL1       -0.0883
     20 H           6.1287    0.5872    0.0000 H       1  UNL1        0.0371
     21 H           4.4399    0.5018    0.0000 H       1  UNL1        0.0744
     22 H           6.4739   -1.9261    0.0000 H       1  UNL1        0.0272
     23 H           6.8725   -1.2358    0.0000 H       1  UNL1        0.0272
     24 H           7.7118    0.4682    0.0000 H       1  UNL1        0.0599
     25 H           4.4399   -2.1887    0.0000 H       1  UNL1        0.0387
     26 H           4.9973   -2.3184    0.0000 H       1  UNL1        0.0272
     27 H           5.7944   -2.3184    0.0000 H       1  UNL1        0.0272
     28 H           6.6751    2.2018    0.0000 H       1  UNL1        0.0294
     29 H           5.8769    2.1987    0.0000 H       1  UNL1        0.0294
     30 H           7.7899    1.0942    0.0000 H       1  UNL1        0.0291
     31 H           7.3935    1.7870    0.0000 H       1  UNL1        0.0291
     32 H           6.8179   -1.3804    0.0000 H       1  UNL1        0.0236
     33 H           7.6648   -1.1535    0.0000 H       1  UNL1        0.0236
     34 H           7.4379   -0.3065    0.0000 H       1  UNL1        0.0236
     35 H           4.3727    1.8064    0.0000 H       1  UNL1        0.0257
     36 H           3.7599    1.1793    0.0000 H       1  UNL1        0.0257
     37 H           4.3870    0.5665    0.0000 H       1  UNL1        0.0257
     38 H           5.1736    2.5987    0.0000 H       1  UNL1        0.2102
     39 H           8.5726   -0.0428    0.0000 H       1  UNL1        0.2098
     40 H           2.6663   -2.7266    0.0000 H       1  UNL1        0.0540
     41 H           3.6870   -3.0602    0.0000 H       1  UNL1        0.0540
@<TRIPOS>BOND
     1     1     7    1
     2     1    18    1
     3     8     2    1
     4     2    38    1
     5    10     3    1
     6     3    39    1
     7     4    18    2
     8     5     6    1
     9     5     9    1
    10     5    10    1
    11     5    15    1
    12     6     7    1
    13     6     8    1
    14     6    20    1
    15     7    11    1
    16     7    21    1
    17     8    13    1
    18     8    16    1
    19     9    12    1
    20     9    22    1
    21     9    23    1
    22    10    14    1
    23    10    24    1
    24    11    12    1
    25    11    17    1
    26    11    25    1
    27    12    26    1
    28    12    27    1
    29    13    14    1
    30    13    28    1
    31    13    29    1
    32    14    30    1
    33    14    31    1
    34    15    32    1
    35    15    33    1
    36    15    34    1
    37    16    35    1
    38    16    36    1
    39    16    37    1
    40    17    18    1
    41    17    19    2
    42    19    40    1
    43    19    41    1
