@<TRIPOS>MOLECULE
IMPHY015588
 24 24 0 0 0
SMALL
GASTEIGER

@<TRIPOS>ATOM
      1 C           2.8660    0.2500    0.0000 C.3     1  UNL1       -0.0413
      2 C           2.0000   -0.2500    0.0000 C.3     1  UNL1       -0.0502
      3 C           3.7320   -0.2500    0.0000 C.3     1  UNL1       -0.0502
      4 C           2.0000   -1.2500    0.0000 C.3     1  UNL1       -0.0528
      5 C           3.7320   -1.2500    0.0000 C.3     1  UNL1       -0.0528
      6 C           2.8660   -1.7500    0.0000 C.3     1  UNL1       -0.0530
      7 C           2.8660    1.2500    0.0000 C.3     1  UNL1       -0.0531
      8 C           3.7320    1.7500    0.0000 C.3     1  UNL1       -0.0650
      9 H           3.4030    0.5600    0.0000 H       1  UNL1        0.0301
     10 H           1.7880    0.3326    0.0000 H       1  UNL1        0.0268
     11 H           1.3894   -0.3577    0.0000 H       1  UNL1        0.0268
     12 H           4.3426   -0.3577    0.0000 H       1  UNL1        0.0268
     13 H           3.9441    0.3326    0.0000 H       1  UNL1        0.0268
     14 H           1.3894   -1.1423    0.0000 H       1  UNL1        0.0265
     15 H           1.7880   -1.8326    0.0000 H       1  UNL1        0.0265
     16 H           3.9441   -1.8326    0.0000 H       1  UNL1        0.0265
     17 H           4.3426   -1.1423    0.0000 H       1  UNL1        0.0265
     18 H           2.4675   -2.2250    0.0000 H       1  UNL1        0.0265
     19 H           3.2646   -2.2250    0.0000 H       1  UNL1        0.0265
     20 H           2.6540    1.8326    0.0000 H       1  UNL1        0.0265
     21 H           2.2554    1.1423    0.0000 H       1  UNL1        0.0265
     22 H           4.0420    1.2131    0.0000 H       1  UNL1        0.0230
     23 H           4.2690    2.0600    0.0000 H       1  UNL1        0.0230
     24 H           3.4220    2.2869    0.0000 H       1  UNL1        0.0230
@<TRIPOS>BOND
     1     1     2    1
     2     1     3    1
     3     1     7    1
     4     1     9    1
     5     2     4    1
     6     2    10    1
     7     2    11    1
     8     3     5    1
     9     3    12    1
    10     3    13    1
    11     4     6    1
    12     4    14    1
    13     4    15    1
    14     5     6    1
    15     5    16    1
    16     5    17    1
    17     6    18    1
    18     6    19    1
    19     7     8    1
    20     7    20    1
    21     7    21    1
    22     8    22    1
    23     8    23    1
    24     8    24    1
