@<TRIPOS>MOLECULE
IMPHY008153
 43 44 0 0 0
SMALL
GASTEIGER

@<TRIPOS>ATOM
      1 O           3.7320    0.0000    0.0000 O.3     1  UNL1       -0.5057
      2 O           5.4641   -3.0000    0.0000 O.3     1  UNL1       -0.5064
      3 O           4.5981    1.5000    0.0000 O.2     1  UNL1       -0.2872
      4 C           4.5981   -1.5000    0.0000 C.ar    1  UNL1        0.0398
      5 C           3.7320   -2.0000    0.0000 C.3     1  UNL1       -0.0023
      6 C           4.5981   -0.5000    0.0000 C.ar    1  UNL1        0.1346
      7 C           5.4641    0.0000    0.0000 C.ar    1  UNL1        0.0635
      8 C           5.4641   -2.0000    0.0000 C.ar    1  UNL1        0.1238
      9 C           3.7320   -3.0000    0.0000 C.2     1  UNL1       -0.0807
     10 C           6.3301   -0.5000    0.0000 C.ar    1  UNL1       -0.0440
     11 C           6.3301   -1.5000    0.0000 C.ar    1  UNL1       -0.0190
     12 C           2.8660   -3.5000    0.0000 C.2     1  UNL1       -0.0793
     13 C           5.4641    1.0000    0.0000 C.2     1  UNL1        0.1896
     14 C           2.8660   -4.5000    0.0000 C.3     1  UNL1       -0.0440
     15 C           2.0000   -3.0000    0.0000 C.3     1  UNL1       -0.0440
     16 C           6.3301    1.5000    0.0000 C.2     1  UNL1       -0.0137
     17 C           6.3301    2.5000    0.0000 C.2     1  UNL1       -0.0510
     18 C           7.1962    3.0000    0.0000 C.ar    1  UNL1       -0.0249
     19 C           8.0622    2.5000    0.0000 C.ar    1  UNL1       -0.0546
     20 C           7.1962    4.0000    0.0000 C.ar    1  UNL1       -0.0546
     21 C           8.9282    3.0000    0.0000 C.ar    1  UNL1       -0.0612
     22 C           8.0622    4.5000    0.0000 C.ar    1  UNL1       -0.0612
     23 C           8.9282    4.0000    0.0000 C.ar    1  UNL1       -0.0617
     24 H           3.5200   -1.4174    0.0000 H       1  UNL1        0.0358
     25 H           3.1215   -2.1077    0.0000 H       1  UNL1        0.0358
     26 H           4.2690   -3.3100    0.0000 H       1  UNL1        0.0575
     27 H           6.8671   -0.1900    0.0000 H       1  UNL1        0.0627
     28 H           6.8671   -1.8100    0.0000 H       1  UNL1        0.0654
     29 H           2.2460   -4.5000    0.0000 H       1  UNL1        0.0274
     30 H           2.3100   -2.4631    0.0000 H       1  UNL1        0.0274
     31 H           1.4631   -2.6900    0.0000 H       1  UNL1        0.0274
     32 H           1.6900   -3.5369    0.0000 H       1  UNL1        0.0274
     33 H           2.8660   -5.1200    0.0000 H       1  UNL1        0.0274
     34 H           3.4860   -4.5000    0.0000 H       1  UNL1        0.0274
     35 H           6.8671    1.1900    0.0000 H       1  UNL1        0.0656
     36 H           3.1951   -0.3100    0.0000 H       1  UNL1        0.2922
     37 H           6.0010   -3.3100    0.0000 H       1  UNL1        0.2921
     38 H           5.7932    2.8100    0.0000 H       1  UNL1        0.0625
     39 H           8.0622    1.8800    0.0000 H       1  UNL1        0.0623
     40 H           6.6592    4.3100    0.0000 H       1  UNL1        0.0623
     41 H           9.4651    2.6900    0.0000 H       1  UNL1        0.0618
     42 H           8.0622    5.1200    0.0000 H       1  UNL1        0.0618
     43 H           9.4651    4.3100    0.0000 H       1  UNL1        0.0618
@<TRIPOS>BOND
     1     1     6    1
     2     1    36    1
     3     2     8    1
     4     2    37    1
     5     3    13    2
     6     4     5    1
     7     4     6   ar
     8     4     8   ar
     9     5     9    1
    10     5    24    1
    11     5    25    1
    12     6     7   ar
    13     7    10   ar
    14     7    13    1
    15     8    11   ar
    16     9    12    2
    17     9    26    1
    18    10    11   ar
    19    10    27    1
    20    11    28    1
    21    12    14    1
    22    12    15    1
    23    13    16    1
    24    14    29    1
    25    14    33    1
    26    14    34    1
    27    15    30    1
    28    15    31    1
    29    15    32    1
    30    16    17    2
    31    16    35    1
    32    17    18    1
    33    17    38    1
    34    18    19   ar
    35    18    20   ar
    36    19    21   ar
    37    19    39    1
    38    20    22   ar
    39    20    40    1
    40    21    23   ar
    41    21    41    1
    42    22    23   ar
    43    22    42    1
    44    23    43    1
