@<TRIPOS>MOLECULE
IMPHY005340
 40 42 0 0 0
SMALL
GASTEIGER

@<TRIPOS>ATOM
      1 O           6.5482   -1.3580    0.0000 O.2     1  UNL1       -0.2971
      2 C           4.1484   -0.5808    0.0000 C.3     1  UNL1       -0.0277
      3 C           3.1636   -0.4071    0.0000 C.3     1  UNL1       -0.0324
      4 C           2.9844   -1.3994    0.0000 C.3     1  UNL1       -0.0315
      5 C           3.9774   -1.5744    0.0000 C.3     1  UNL1       -0.0439
      6 C           5.2242    0.4353    0.0000 C.3     1  UNL1        0.0211
      7 C           5.4830    1.4012    0.0000 C.3     1  UNL1       -0.0310
      8 C           2.8216    0.5326    0.0000 C.3     1  UNL1       -0.0490
      9 C           4.7464    2.3838    0.0000 C.3     1  UNL1       -0.0378
     10 C           3.4644    1.2986    0.0000 C.3     1  UNL1       -0.0473
     11 C           6.9147    1.2035    0.0000 C.3     1  UNL1       -0.0409
     12 C           2.8088   -2.3838    0.0000 C.3     1  UNL1       -0.0595
     13 C           2.0000   -1.2237    0.0000 C.3     1  UNL1       -0.0595
     14 C           6.4959   -0.3594    0.0000 C.2     1  UNL1        0.1367
     15 C           7.2730    0.2700    0.0000 C.3     1  UNL1        0.0066
     16 C           5.7419    2.3671    0.0000 C.3     1  UNL1       -0.0595
     17 H           4.9855   -0.7284    0.0000 H       1  UNL1        0.0310
     18 H           2.3265   -0.2595    0.0000 H       1  UNL1        0.0309
     19 H           3.8706   -2.1852    0.0000 H       1  UNL1        0.0273
     20 H           4.5883   -1.6804    0.0000 H       1  UNL1        0.0273
     21 H           5.0042   -0.3858    0.0000 H       1  UNL1        0.0380
     22 H           2.4231    1.0075    0.0000 H       1  UNL1        0.0268
     23 H           2.2847    0.2226    0.0000 H       1  UNL1        0.0268
     24 H           5.0642    2.9162    0.0000 H       1  UNL1        0.0277
     25 H           4.1333    2.4758    0.0000 H       1  UNL1        0.0277
     26 H           3.5869    1.9064    0.0000 H       1  UNL1        0.0271
     27 H           2.9057    1.5674    0.0000 H       1  UNL1        0.0271
     28 H           7.5225    1.3259    0.0000 H       1  UNL1        0.0275
     29 H           6.8956    1.8232    0.0000 H       1  UNL1        0.0275
     30 H           2.1984   -2.2749    0.0000 H       1  UNL1        0.0235
     31 H           2.6999   -2.9942    0.0000 H       1  UNL1        0.0235
     32 H           3.4191   -2.4927    0.0000 H       1  UNL1        0.0235
     33 H           2.1089   -0.6133    0.0000 H       1  UNL1        0.0235
     34 H           1.3896   -1.1148    0.0000 H       1  UNL1        0.0235
     35 H           1.8911   -1.8340    0.0000 H       1  UNL1        0.0235
     36 H           7.6107   -0.2500    0.0000 H       1  UNL1        0.0342
     37 H           7.8255    0.5514    0.0000 H       1  UNL1        0.0342
     38 H           6.3407    2.2067    0.0000 H       1  UNL1        0.0235
     39 H           5.9023    2.9660    0.0000 H       1  UNL1        0.0235
     40 H           5.1430    2.5276    0.0000 H       1  UNL1        0.0235
@<TRIPOS>BOND
     1     1    14    2
     2     2     3    1
     3     2     5    1
     4     2     6    1
     5     2    17    1
     6     3     4    1
     7     3     8    1
     8     3    18    1
     9     4     5    1
    10     4    12    1
    11     4    13    1
    12     5    19    1
    13     5    20    1
    14     6     9    1
    15     6    14    1
    16     6    21    1
    17     7     9    1
    18     7    10    1
    19     7    11    1
    20     7    16    1
    21     8    10    1
    22     8    22    1
    23     8    23    1
    24     9    24    1
    25     9    25    1
    26    10    26    1
    27    10    27    1
    28    11    15    1
    29    11    28    1
    30    11    29    1
    31    12    30    1
    32    12    31    1
    33    12    32    1
    34    13    33    1
    35    13    34    1
    36    13    35    1
    37    14    15    1
    38    15    36    1
    39    15    37    1
    40    16    38    1
    41    16    39    1
    42    16    40    1
