@<TRIPOS>MOLECULE
IMPHY008440
 25 25 0 0 0
SMALL
GASTEIGER

@<TRIPOS>ATOM
      1 O           2.0000    0.7500    0.0000 O.2     1  UNL1       -0.2920
      2 C           3.7320    0.7500    0.0000 C.3     1  UNL1        0.0423
      3 C           4.5981    0.2500    0.0000 C.3     1  UNL1       -0.0358
      4 C           4.5981   -0.7500    0.0000 C.3     1  UNL1       -0.0307
      5 C           3.7320   -1.2500    0.0000 C.2     1  UNL1       -0.0693
      6 C           2.8660    0.2500    0.0000 C.2     1  UNL1        0.1630
      7 C           3.7320    1.7500    0.0000 C.2     1  UNL1       -0.0692
      8 C           2.8660   -0.7500    0.0000 C.2     1  UNL1       -0.0196
      9 C           3.7320   -2.2500    0.0000 C.3     1  UNL1       -0.0434
     10 C           4.5981    2.2500    0.0000 C.3     1  UNL1       -0.0434
     11 C           2.8660    2.2500    0.0000 C.2     1  UNL1       -0.0990
     12 H           4.2690    1.0600    0.0000 H       1  UNL1        0.0426
     13 H           5.2087    0.1423    0.0000 H       1  UNL1        0.0278
     14 H           4.8101    0.8326    0.0000 H       1  UNL1        0.0278
     15 H           4.8101   -1.3326    0.0000 H       1  UNL1        0.0310
     16 H           5.2087   -0.6423    0.0000 H       1  UNL1        0.0310
     17 H           2.3291   -1.0600    0.0000 H       1  UNL1        0.0652
     18 H           3.1120   -2.2500    0.0000 H       1  UNL1        0.0274
     19 H           3.7320   -2.8700    0.0000 H       1  UNL1        0.0274
     20 H           4.3520   -2.2500    0.0000 H       1  UNL1        0.0274
     21 H           4.9081    1.7131    0.0000 H       1  UNL1        0.0274
     22 H           5.1350    2.5600    0.0000 H       1  UNL1        0.0274
     23 H           4.2881    2.7869    0.0000 H       1  UNL1        0.0274
     24 H           2.8660    2.8700    0.0000 H       1  UNL1        0.0535
     25 H           2.3291    1.9400    0.0000 H       1  UNL1        0.0535
@<TRIPOS>BOND
     1     1     6    2
     2     2     3    1
     3     2     6    1
     4     2     7    1
     5     2    12    1
     6     3     4    1
     7     3    13    1
     8     3    14    1
     9     4     5    1
    10     4    15    1
    11     4    16    1
    12     5     8    2
    13     5     9    1
    14     6     8    1
    15     7    10    1
    16     7    11    2
    17     8    17    1
    18     9    18    1
    19     9    19    1
    20     9    20    1
    21    10    21    1
    22    10    22    1
    23    10    23    1
    24    11    24    1
    25    11    25    1
