@<TRIPOS>MOLECULE
IMPHY002500
 163 172 0 0 0
SMALL
GASTEIGER

@<TRIPOS>ATOM
      1 O          10.5546    4.8469    0.0000 O.3     1  UNL1       -0.3679
      2 O          11.1972   -1.7536    0.0000 O.3     1  UNL1       -0.3448
      3 O           8.7140   -1.0392    0.0000 O.3     1  UNL1       -0.3944
      4 O           9.4651   -1.7536    0.0000 O.3     1  UNL1       -0.3431
      5 O          11.1972   -3.7536    0.0000 O.3     1  UNL1       -0.3377
      6 O           9.4651   -4.7536    0.0000 O.3     1  UNL1       -0.3400
      7 O           7.7331   -3.7536    0.0000 O.3     1  UNL1       -0.3866
      8 O          12.0632   -2.2536    0.0000 O.3     1  UNL1       -0.3405
      9 O           7.7331   -4.7536    0.0000 O.3     1  UNL1       -0.3405
     10 O          12.9292   -4.7536    0.0000 O.3     1  UNL1       -0.3841
     11 O           9.4651   -6.7536    0.0000 O.3     1  UNL1       -0.3841
     12 O          14.6613   -3.7536    0.0000 O.3     1  UNL1       -0.3864
     13 O          14.6613   -1.7536    0.0000 O.3     1  UNL1       -0.3865
     14 O           7.7331   -7.7536    0.0000 O.3     1  UNL1       -0.3864
     15 O           6.0010   -6.7536    0.0000 O.3     1  UNL1       -0.3401
     16 O          13.7953   -0.2536    0.0000 O.3     1  UNL1       -0.3924
     17 O           6.0010   -3.7536    0.0000 O.3     1  UNL1       -0.3924
     18 O           5.1350   -5.2536    0.0000 O.3     1  UNL1       -0.3431
     19 O           4.2690   -7.7536    0.0000 O.3     1  UNL1       -0.3841
     20 O           2.5369   -6.7536    0.0000 O.3     1  UNL1       -0.3864
     21 O           2.5369   -4.7536    0.0000 O.3     1  UNL1       -0.3866
     22 C          10.2707    4.1422    0.0000 C.3     1  UNL1        0.0068
     23 C          11.1348    4.6456    0.0000 C.3     1  UNL1        0.0968
     24 C          10.2586    3.1007    0.0000 C.3     1  UNL1       -0.0170
     25 C          11.1309    5.6456    0.0000 C.3     1  UNL1        0.0005
     26 C          10.2630    6.1422    0.0000 C.3     1  UNL1       -0.0000
     27 C          11.1587    2.5764    0.0000 C.3     1  UNL1       -0.0112
     28 C          11.1712    1.4915    0.0000 C.3     1  UNL1       -0.0217
     29 C           9.4027    4.6389    0.0000 C.3     1  UNL1       -0.0436
     30 C           9.3989    5.6389    0.0000 C.3     1  UNL1       -0.0443
     31 C          10.2337    0.9454    0.0000 C.3     1  UNL1       -0.0252
     32 C           9.3087    2.5764    0.0000 C.3     1  UNL1       -0.0462
     33 C          10.1519    5.5382    0.0000 C.3     1  UNL1        0.0548
     34 C          12.0389    6.1559    0.0000 C.3     1  UNL1       -0.0415
     35 C          10.2429    7.1837    0.0000 C.3     1  UNL1       -0.0444
     36 C          12.0467    4.1422    0.0000 C.2     1  UNL1       -0.0554
     37 C           9.2962    1.4915    0.0000 C.3     1  UNL1       -0.0485
     38 C           9.2865    3.9648    0.0000 C.3     1  UNL1       -0.0561
     39 C          12.0587    3.1007    0.0000 C.2     1  UNL1       -0.0811
     40 C          12.0430    7.1976    0.0000 C.3     1  UNL1       -0.0345
     41 C          10.2206   -0.1847    0.0000 C.3     1  UNL1        0.0206
     42 C           9.2745    3.2781    0.0000 C.3     1  UNL1       -0.0584
     43 C          12.1607    0.9454    0.0000 C.3     1  UNL1       -0.0444
     44 C          11.1389    7.7149    0.0000 C.3     1  UNL1       -0.0473
     45 C          12.0353    1.9948    0.0000 C.3     1  UNL1       -0.0587
     46 C          11.1972   -0.7536    0.0000 C.3     1  UNL1        0.0695
     47 C          12.1738   -0.1847    0.0000 C.3     1  UNL1       -0.0254
     48 C           9.2206   -0.1770    0.0000 C.3     1  UNL1        0.0522
     49 C          12.5430    8.0636    0.0000 C.3     1  UNL1       -0.0598
     50 C          13.0430    7.1976    0.0000 C.3     1  UNL1       -0.0598
     51 C           9.7140   -1.0469    0.0000 C.3     1  UNL1       -0.0548
     52 C          10.3312   -2.2536    0.0000 C.3     1  UNL1        0.1885
     53 C          10.3312   -3.2536    0.0000 C.3     1  UNL1        0.1410
     54 C           9.4651   -3.7536    0.0000 C.3     1  UNL1        0.1209
     55 C           8.5991   -2.2536    0.0000 C.3     1  UNL1        0.0873
     56 C           8.5991   -3.2536    0.0000 C.3     1  UNL1        0.1099
     57 C           7.7331   -1.7536    0.0000 C.3     1  UNL1       -0.0361
     58 C          12.0632   -3.2536    0.0000 C.3     1  UNL1        0.1885
     59 C           8.5991   -5.2536    0.0000 C.3     1  UNL1        0.1884
     60 C          12.9292   -3.7536    0.0000 C.3     1  UNL1        0.1341
     61 C           8.5991   -6.2536    0.0000 C.3     1  UNL1        0.1341
     62 C          13.7953   -3.2536    0.0000 C.3     1  UNL1        0.1141
     63 C          12.9292   -1.7536    0.0000 C.3     1  UNL1        0.1130
     64 C          13.7953   -2.2536    0.0000 C.3     1  UNL1        0.1119
     65 C           7.7331   -6.7536    0.0000 C.3     1  UNL1        0.1144
     66 C           6.8671   -5.2536    0.0000 C.3     1  UNL1        0.1134
     67 C           6.8671   -6.2536    0.0000 C.3     1  UNL1        0.1184
     68 C          12.9292   -0.7536    0.0000 C.3     1  UNL1        0.0730
     69 C           6.0010   -4.7536    0.0000 C.3     1  UNL1        0.0730
     70 C           5.1350   -6.2536    0.0000 C.3     1  UNL1        0.1883
     71 C           4.2690   -6.7536    0.0000 C.3     1  UNL1        0.1341
     72 C           3.4030   -6.2536    0.0000 C.3     1  UNL1        0.1140
     73 C           4.2690   -4.7536    0.0000 C.3     1  UNL1        0.0873
     74 C           3.4030   -5.2536    0.0000 C.3     1  UNL1        0.1095
     75 C           4.2690   -3.7536    0.0000 C.3     1  UNL1       -0.0361
     76 H          11.8687    5.2234    0.0000 H       1  UNL1        0.0338
     77 H          11.8981    2.1571    0.0000 H       1  UNL1        0.0354
     78 H           8.7917    4.7442    0.0000 H       1  UNL1        0.0272
     79 H           9.1929    4.0555    0.0000 H       1  UNL1        0.0272
     80 H           9.1846    6.2207    0.0000 H       1  UNL1        0.0272
     81 H           8.7887    5.5289    0.0000 H       1  UNL1        0.0272
     82 H           9.4943    0.5261    0.0000 H       1  UNL1        0.0313
     83 H           9.1064    3.1625    0.0000 H       1  UNL1        0.0271
     84 H           8.6967    2.4774    0.0000 H       1  UNL1        0.0271
     85 H           9.5988    5.8185    0.0000 H       1  UNL1        0.0566
     86 H           9.7265    5.0872    0.0000 H       1  UNL1        0.0566
     87 H          12.2457    5.5714    0.0000 H       1  UNL1        0.0274
     88 H          12.6502    6.2597    0.0000 H       1  UNL1        0.0274
     89 H          10.0226    7.7632    0.0000 H       1  UNL1        0.0272
     90 H           9.6342    7.0658    0.0000 H       1  UNL1        0.0272
     91 H          12.5788    4.4605    0.0000 H       1  UNL1        0.0598
     92 H           8.6866    1.6046    0.0000 H       1  UNL1        0.0268
     93 H           9.0804    0.9102    0.0000 H       1  UNL1        0.0268
     94 H           9.1765    4.5750    0.0000 H       1  UNL1        0.0236
     95 H           8.6764    3.8548    0.0000 H       1  UNL1        0.0236
     96 H           9.3965    3.3547    0.0000 H       1  UNL1        0.0236
     97 H          12.5981    2.7948    0.0000 H       1  UNL1        0.0573
     98 H           9.3845    3.8883    0.0000 H       1  UNL1        0.0235
     99 H           8.6643    3.3882    0.0000 H       1  UNL1        0.0235
    100 H           9.1645    2.6680    0.0000 H       1  UNL1        0.0235
    101 H          12.7727    0.8463    0.0000 H       1  UNL1        0.0272
    102 H          12.3630    1.5314    0.0000 H       1  UNL1        0.0272
    103 H          11.5343    8.1924    0.0000 H       1  UNL1        0.0271
    104 H          10.7361    8.1862    0.0000 H       1  UNL1        0.0271
    105 H          12.3474    1.4591    0.0000 H       1  UNL1        0.0235
    106 H          12.5711    2.3069    0.0000 H       1  UNL1        0.0235
    107 H          11.7233    2.5306    0.0000 H       1  UNL1        0.0235
    108 H          11.7347   -1.0625    0.0000 H       1  UNL1        0.0603
    109 H          12.3895   -0.7660    0.0000 H       1  UNL1        0.0290
    110 H          12.7833   -0.0716    0.0000 H       1  UNL1        0.0290
    111 H           9.3330    0.4327    0.0000 H       1  UNL1        0.0563
    112 H           8.6397    0.0395    0.0000 H       1  UNL1        0.0563
    113 H          13.0430    6.5776    0.0000 H       1  UNL1        0.0235
    114 H          13.6630    7.1976    0.0000 H       1  UNL1        0.0235
    115 H          13.0799    7.7536    0.0000 H       1  UNL1        0.0235
    116 H          13.0430    7.8176    0.0000 H       1  UNL1        0.0235
    117 H          12.8530    8.6005    0.0000 H       1  UNL1        0.0235
    118 H          12.0060    8.3736    0.0000 H       1  UNL1        0.0235
    119 H           9.1794   -0.7327    0.0000 H       1  UNL1        0.0237
    120 H           9.3998   -1.5814    0.0000 H       1  UNL1        0.0237
    121 H          10.2485   -1.3610    0.0000 H       1  UNL1        0.0237
    122 H           8.0940   -1.0344    0.0000 H       1  UNL1        0.2094
    123 H          10.3312   -1.6336    0.0000 H       1  UNL1        0.0938
    124 H          10.3312   -3.8736    0.0000 H       1  UNL1        0.0675
    125 H           8.9282   -4.0636    0.0000 H       1  UNL1        0.0651
    126 H           8.5991   -1.6336    0.0000 H       1  UNL1        0.0621
    127 H           8.0622   -2.9436    0.0000 H       1  UNL1        0.0646
    128 H           8.0431   -1.2166    0.0000 H       1  UNL1        0.0255
    129 H           7.1962   -1.4436    0.0000 H       1  UNL1        0.0255
    130 H           7.4231   -2.2905    0.0000 H       1  UNL1        0.0255
    131 H          11.5263   -2.9436    0.0000 H       1  UNL1        0.0938
    132 H           7.1962   -3.4436    0.0000 H       1  UNL1        0.2100
    133 H           8.5991   -4.6336    0.0000 H       1  UNL1        0.0938
    134 H          12.3923   -4.0636    0.0000 H       1  UNL1        0.0671
    135 H           8.5991   -6.8736    0.0000 H       1  UNL1        0.0671
    136 H          14.3322   -2.9436    0.0000 H       1  UNL1        0.0648
    137 H          12.3923   -1.4436    0.0000 H       1  UNL1        0.0647
    138 H          13.7953   -1.6336    0.0000 H       1  UNL1        0.0647
    139 H           7.1962   -7.0636    0.0000 H       1  UNL1        0.0648
    140 H           6.8671   -4.6336    0.0000 H       1  UNL1        0.0647
    141 H          13.4662   -5.0636    0.0000 H       1  UNL1        0.2101
    142 H           6.3301   -5.9436    0.0000 H       1  UNL1        0.0651
    143 H          12.7172   -0.1710    0.0000 H       1  UNL1        0.0584
    144 H          12.3187   -0.8612    0.0000 H       1  UNL1        0.0584
    145 H           9.4651   -7.3736    0.0000 H       1  UNL1        0.2101
    146 H          15.1982   -3.4436    0.0000 H       1  UNL1        0.2100
    147 H          15.1982   -2.0636    0.0000 H       1  UNL1        0.2100
    148 H           5.3905   -4.6459    0.0000 H       1  UNL1        0.0584
    149 H           5.7890   -5.3362    0.0000 H       1  UNL1        0.0584
    150 H           7.1962   -8.0636    0.0000 H       1  UNL1        0.2100
    151 H          14.3322   -0.5636    0.0000 H       1  UNL1        0.2095
    152 H           5.1350   -6.8736    0.0000 H       1  UNL1        0.0938
    153 H           5.4641   -3.4436    0.0000 H       1  UNL1        0.2095
    154 H           3.7320   -7.0636    0.0000 H       1  UNL1        0.0671
    155 H           2.8660   -5.9436    0.0000 H       1  UNL1        0.0648
    156 H           4.8059   -4.4436    0.0000 H       1  UNL1        0.0621
    157 H           3.4030   -4.6336    0.0000 H       1  UNL1        0.0646
    158 H           3.7320   -8.0636    0.0000 H       1  UNL1        0.2101
    159 H           4.8890   -3.7536    0.0000 H       1  UNL1        0.0255
    160 H           4.2690   -3.1336    0.0000 H       1  UNL1        0.0255
    161 H           3.6490   -3.7536    0.0000 H       1  UNL1        0.0255
    162 H           2.0000   -6.4436    0.0000 H       1  UNL1        0.2100
    163 H           2.5369   -4.1336    0.0000 H       1  UNL1        0.2100
@<TRIPOS>BOND
     1     1    23    1
     2     1    33    1
     3    46     2    1
     4    52     2    1
     5     3    48    1
     6     3   122    1
     7     4    52    1
     8     4    55    1
     9    53     5    1
    10    58     5    1
    11    54     6    1
    12    59     6    1
    13    56     7    1
    14     7   132    1
    15     8    58    1
    16     8    63    1
    17     9    59    1
    18     9    66    1
    19    60    10    1
    20    10   141    1
    21    61    11    1
    22    11   145    1
    23    62    12    1
    24    12   146    1
    25    64    13    1
    26    13   147    1
    27    65    14    1
    28    14   150    1
    29    67    15    1
    30    70    15    1
    31    16    68    1
    32    16   151    1
    33    17    69    1
    34    17   153    1
    35    18    70    1
    36    18    73    1
    37    71    19    1
    38    19   158    1
    39    72    20    1
    40    20   162    1
    41    74    21    1
    42    21   163    1
    43    22    23    1
    44    22    24    1
    45    22    29    1
    46    22    38    1
    47    23    25    1
    48    23    36    1
    49    24    27    1
    50    24    32    1
    51    24    42    1
    52    25    26    1
    53    25    34    1
    54    25    76    1
    55    26    30    1
    56    26    33    1
    57    26    35    1
    58    27    28    1
    59    27    39    1
    60    27    77    1
    61    28    31    1
    62    28    43    1
    63    28    45    1
    64    29    30    1
    65    29    78    1
    66    29    79    1
    67    30    80    1
    68    30    81    1
    69    31    37    1
    70    31    41    1
    71    31    82    1
    72    32    37    1
    73    32    83    1
    74    32    84    1
    75    33    85    1
    76    33    86    1
    77    34    40    1
    78    34    87    1
    79    34    88    1
    80    35    44    1
    81    35    89    1
    82    35    90    1
    83    36    39    2
    84    36    91    1
    85    37    92    1
    86    37    93    1
    87    38    94    1
    88    38    95    1
    89    38    96    1
    90    39    97    1
    91    40    44    1
    92    40    49    1
    93    40    50    1
    94    41    46    1
    95    41    48    1
    96    41    51    1
    97    42    98    1
    98    42    99    1
    99    42   100    1
   100    43    47    1
   101    43   101    1
   102    43   102    1
   103    44   103    1
   104    44   104    1
   105    45   105    1
   106    45   106    1
   107    45   107    1
   108    46    47    1
   109    46   108    1
   110    47   109    1
   111    47   110    1
   112    48   111    1
   113    48   112    1
   114    49   115    1
   115    49   117    1
   116    49   118    1
   117    50   113    1
   118    50   114    1
   119    50   116    1
   120    51   119    1
   121    51   120    1
   122    51   121    1
   123    52    53    1
   124    52   123    1
   125    53    54    1
   126    53   124    1
   127    54    56    1
   128    54   125    1
   129    55    56    1
   130    55    57    1
   131    55   126    1
   132    56   127    1
   133    57   128    1
   134    57   129    1
   135    57   130    1
   136    58    60    1
   137    58   131    1
   138    59    61    1
   139    59   133    1
   140    60    62    1
   141    60   134    1
   142    61    65    1
   143    61   135    1
   144    62    64    1
   145    62   136    1
   146    63    64    1
   147    63    68    1
   148    63   137    1
   149    64   138    1
   150    65    67    1
   151    65   139    1
   152    66    67    1
   153    66    69    1
   154    66   140    1
   155    67   142    1
   156    68   143    1
   157    68   144    1
   158    69   148    1
   159    69   149    1
   160    70    71    1
   161    70   152    1
   162    71    72    1
   163    71   154    1
   164    72    74    1
   165    72   155    1
   166    73    74    1
   167    73    75    1
   168    73   156    1
   169    74   157    1
   170    75   159    1
   171    75   160    1
   172    75   161    1
