@<TRIPOS>MOLECULE
IMPHY007071
 213 225 0 0 0
SMALL
GASTEIGER

@<TRIPOS>ATOM
      1 O          16.0844   10.0403    0.0000 O.3     1  UNL1       -0.3448
      2 O          14.3119   10.9351    0.0000 O.3     1  UNL1       -0.3480
      3 O          12.9585    7.9864    0.0000 O.2     1  UNL1       -0.2968
      4 O          14.6613    1.7962    0.0000 O.3     1  UNL1       -0.3454
      5 O          12.9292    1.7962    0.0000 O.3     1  UNL1       -0.3405
      6 O          14.6613   -0.2037    0.0000 O.3     1  UNL1       -0.3841
      7 O          12.9292   -1.2038    0.0000 O.3     1  UNL1       -0.3864
      8 O          11.1972   -0.2037    0.0000 O.3     1  UNL1       -0.3401
      9 O          11.1972    2.7962    0.0000 O.3     1  UNL1       -0.3924
     10 O          12.0632   -1.7038    0.0000 O.3     1  UNL1       -0.3405
     11 O           9.4651   -1.2038    0.0000 O.3     1  UNL1       -0.3841
     12 O           9.4651   -3.2038    0.0000 O.3     1  UNL1       -0.3864
     13 O          11.1972   -4.2038    0.0000 O.3     1  UNL1       -0.3401
     14 O          13.7953   -2.7038    0.0000 O.3     1  UNL1       -0.3924
     15 O           9.4651   -4.2038    0.0000 O.3     1  UNL1       -0.3405
     16 O          11.1972   -6.2038    0.0000 O.3     1  UNL1       -0.3378
     17 O           9.4651   -7.2038    0.0000 O.3     1  UNL1       -0.3400
     18 O           7.7331   -6.2038    0.0000 O.3     1  UNL1       -0.3865
     19 O          12.0632   -4.7038    0.0000 O.3     1  UNL1       -0.3461
     20 O           6.8671   -4.7038    0.0000 O.3     1  UNL1       -0.3924
     21 O           7.7331   -7.2038    0.0000 O.3     1  UNL1       -0.3430
     22 O           9.4651   -9.2038    0.0000 O.3     1  UNL1       -0.3378
     23 O          12.9292   -7.2038    0.0000 O.3     1  UNL1       -0.3841
     24 O           6.0010   -9.2038    0.0000 O.3     1  UNL1       -0.3402
     25 O           7.7331  -10.2037    0.0000 O.3     1  UNL1       -0.3864
     26 O          14.6613   -6.2038    0.0000 O.3     1  UNL1       -0.3864
     27 O          14.6613   -4.2038    0.0000 O.3     1  UNL1       -0.3869
     28 O           8.5991  -10.7037    0.0000 O.3     1  UNL1       -0.3431
     29 O           5.1350   -7.7038    0.0000 O.3     1  UNL1       -0.3431
     30 O          11.1972  -10.2037    0.0000 O.3     1  UNL1       -0.3841
     31 O          11.1972  -12.2037    0.0000 O.3     1  UNL1       -0.3864
     32 O           4.2690  -10.2037    0.0000 O.3     1  UNL1       -0.3841
     33 O           9.4651  -13.2037    0.0000 O.3     1  UNL1       -0.3866
     34 O           2.5369   -9.2038    0.0000 O.3     1  UNL1       -0.3864
     35 O           2.5369   -7.2038    0.0000 O.3     1  UNL1       -0.3866
     36 C          15.5585    7.4965    0.0000 C.3     1  UNL1       -0.0231
     37 C          14.6906    7.9931    0.0000 C.3     1  UNL1        0.0349
     38 C          15.5624    6.4965    0.0000 C.3     1  UNL1       -0.0335
     39 C          14.8960    8.9657    0.0000 C.3     1  UNL1        0.0052
     40 C          14.6983    5.9931    0.0000 C.3     1  UNL1       -0.0256
     41 C          14.6862    4.9516    0.0000 C.3     1  UNL1       -0.0256
     42 C          15.8843    9.0726    0.0000 C.3     1  UNL1        0.0664
     43 C          16.2929    8.1664    0.0000 C.3     1  UNL1       -0.0222
     44 C          14.4937    9.8683    0.0000 C.3     1  UNL1        0.0164
     45 C          15.5863    4.4273    0.0000 C.3     1  UNL1       -0.0330
     46 C          13.8303    6.4898    0.0000 C.3     1  UNL1        0.0100
     47 C          16.4743    5.9931    0.0000 C.3     1  UNL1       -0.0494
     48 C          13.8265    7.4898    0.0000 C.2     1  UNL1        0.1401
     49 C          15.2267   10.5311    0.0000 C.3     1  UNL1        0.1732
     50 C          16.4863    4.9516    0.0000 C.3     1  UNL1       -0.0494
     51 C          13.8226    8.4898    0.0000 C.3     1  UNL1       -0.0522
     52 C          13.7363    4.4273    0.0000 C.3     1  UNL1       -0.0448
     53 C          15.5988    3.3424    0.0000 C.3     1  UNL1       -0.0232
     54 C          13.8221    5.4549    0.0000 C.3     1  UNL1       -0.0590
     55 C          13.7238    3.3424    0.0000 C.3     1  UNL1       -0.0260
     56 C          14.6613    2.7962    0.0000 C.3     1  UNL1        0.0621
     57 C          13.5153   10.0750    0.0000 C.3     1  UNL1       -0.0572
     58 C          16.0339   11.1213    0.0000 C.3     1  UNL1        0.0020
     59 C          15.9264   12.1155    0.0000 C.3     1  UNL1       -0.0435
     60 C          15.0117   12.5195    0.0000 C.3     1  UNL1       -0.0201
     61 C          14.2044   11.9293    0.0000 C.3     1  UNL1        0.0535
     62 C          14.9042   13.5137    0.0000 C.3     1  UNL1       -0.0603
     63 C          13.7953    1.2962    0.0000 C.3     1  UNL1        0.1882
     64 C          13.7953    0.2963    0.0000 C.3     1  UNL1        0.1341
     65 C          12.9292   -0.2037    0.0000 C.3     1  UNL1        0.1144
     66 C          12.0632    1.2962    0.0000 C.3     1  UNL1        0.1134
     67 C          12.0632    0.2963    0.0000 C.3     1  UNL1        0.1184
     68 C          11.1972    1.7962    0.0000 C.3     1  UNL1        0.0730
     69 C          11.1972   -1.2038    0.0000 C.3     1  UNL1        0.1884
     70 C          10.3312   -1.7038    0.0000 C.3     1  UNL1        0.1341
     71 C          10.3312   -2.7038    0.0000 C.3     1  UNL1        0.1144
     72 C          12.0632   -2.7038    0.0000 C.3     1  UNL1        0.1134
     73 C          11.1972   -3.2038    0.0000 C.3     1  UNL1        0.1184
     74 C          12.9292   -3.2038    0.0000 C.3     1  UNL1        0.0730
     75 C          10.3312   -4.7038    0.0000 C.3     1  UNL1        0.1888
     76 C          10.3312   -5.7038    0.0000 C.3     1  UNL1        0.1410
     77 C           9.4651   -6.2038    0.0000 C.3     1  UNL1        0.1209
     78 C           8.5991   -4.7038    0.0000 C.3     1  UNL1        0.1130
     79 C           8.5991   -5.7038    0.0000 C.3     1  UNL1        0.1123
     80 C           7.7331   -4.2038    0.0000 C.3     1  UNL1        0.0730
     81 C          12.0632   -5.7038    0.0000 C.3     1  UNL1        0.1881
     82 C           8.5991   -7.7038    0.0000 C.3     1  UNL1        0.1887
     83 C          12.9292   -6.2038    0.0000 C.3     1  UNL1        0.1341
     84 C           8.5991   -8.7038    0.0000 C.3     1  UNL1        0.1406
     85 C           7.7331   -9.2038    0.0000 C.3     1  UNL1        0.1147
     86 C          13.7953   -5.7038    0.0000 C.3     1  UNL1        0.1137
     87 C           6.8671   -8.7038    0.0000 C.3     1  UNL1        0.1160
     88 C           6.8671   -7.7038    0.0000 C.3     1  UNL1        0.0877
     89 C          12.9292   -4.2038    0.0000 C.3     1  UNL1        0.0792
     90 C          13.7953   -4.7038    0.0000 C.3     1  UNL1        0.1069
     91 C           9.4651  -10.2037    0.0000 C.3     1  UNL1        0.1884
     92 C           6.0010   -7.2038    0.0000 C.3     1  UNL1       -0.0361
     93 C           5.1350   -8.7038    0.0000 C.3     1  UNL1        0.1883
     94 C          10.3312  -10.7037    0.0000 C.3     1  UNL1        0.1341
     95 C          10.3312  -11.7037    0.0000 C.3     1  UNL1        0.1140
     96 C           4.2690   -9.2038    0.0000 C.3     1  UNL1        0.1341
     97 C           8.5991  -11.7037    0.0000 C.3     1  UNL1        0.0873
     98 C           9.4651  -12.2037    0.0000 C.3     1  UNL1        0.1095
     99 C           3.4030   -8.7038    0.0000 C.3     1  UNL1        0.1140
    100 C           4.2690   -7.2038    0.0000 C.3     1  UNL1        0.0873
    101 C           3.4030   -7.7038    0.0000 C.3     1  UNL1        0.1095
    102 C           7.7331  -12.2037    0.0000 C.3     1  UNL1       -0.0361
    103 C           4.2690   -6.2038    0.0000 C.3     1  UNL1       -0.0361
    104 H          16.1262    7.2472    0.0000 H       1  UNL1        0.0314
    105 H          16.0957    6.8127    0.0000 H       1  UNL1        0.0307
    106 H          14.2795    8.9004    0.0000 H       1  UNL1        0.0339
    107 H          15.2340    5.6811    0.0000 H       1  UNL1        0.0313
    108 H          16.5006    9.1406    0.0000 H       1  UNL1        0.0600
    109 H          16.6603    7.6670    0.0000 H       1  UNL1        0.0293
    110 H          16.8282    8.4792    0.0000 H       1  UNL1        0.0293
    111 H          14.3322   10.4669    0.0000 H       1  UNL1        0.0354
    112 H          16.1256    4.1214    0.0000 H       1  UNL1        0.0307
    113 H          13.2193    6.5951    0.0000 H       1  UNL1        0.0345
    114 H          13.6205    5.9064    0.0000 H       1  UNL1        0.0345
    115 H          17.0863    5.8941    0.0000 H       1  UNL1        0.0268
    116 H          16.6766    6.5792    0.0000 H       1  UNL1        0.0268
    117 H          16.7021    4.3703    0.0000 H       1  UNL1        0.0268
    118 H          17.0959    5.0647    0.0000 H       1  UNL1        0.0268
    119 H          14.1305    9.0279    0.0000 H       1  UNL1        0.0239
    120 H          13.2845    8.7977    0.0000 H       1  UNL1        0.0239
    121 H          13.5147    7.9517    0.0000 H       1  UNL1        0.0239
    122 H          13.5340    5.0134    0.0000 H       1  UNL1        0.0271
    123 H          13.1243    4.3283    0.0000 H       1  UNL1        0.0271
    124 H          15.8146    2.7611    0.0000 H       1  UNL1        0.0293
    125 H          16.2084    3.4555    0.0000 H       1  UNL1        0.0293
    126 H          14.1342    5.9906    0.0000 H       1  UNL1        0.0235
    127 H          13.2864    5.7670    0.0000 H       1  UNL1        0.0235
    128 H          13.5101    4.9192    0.0000 H       1  UNL1        0.0235
    129 H          13.1142    3.4555    0.0000 H       1  UNL1        0.0290
    130 H          13.5080    2.7611    0.0000 H       1  UNL1        0.0290
    131 H          14.1238    2.4873    0.0000 H       1  UNL1        0.0597
    132 H          13.6435   10.6816    0.0000 H       1  UNL1        0.0234
    133 H          12.9087   10.2032    0.0000 H       1  UNL1        0.0234
    134 H          13.3872    9.4684    0.0000 H       1  UNL1        0.0234
    135 H          16.3074   10.5649    0.0000 H       1  UNL1        0.0317
    136 H          16.6294   11.2940    0.0000 H       1  UNL1        0.0317
    137 H          16.5451   12.0741    0.0000 H       1  UNL1        0.0270
    138 H          16.0746   12.7176    0.0000 H       1  UNL1        0.0270
    139 H          14.4445   12.7700    0.0000 H       1  UNL1        0.0320
    140 H          13.9310   12.4858    0.0000 H       1  UNL1        0.0563
    141 H          13.6090   11.7567    0.0000 H       1  UNL1        0.0563
    142 H          15.5206   13.5804    0.0000 H       1  UNL1        0.0233
    143 H          14.8375   14.1302    0.0000 H       1  UNL1        0.0233
    144 H          14.2878   13.4471    0.0000 H       1  UNL1        0.0233
    145 H          14.3322    0.9863    0.0000 H       1  UNL1        0.0937
    146 H          13.7953   -0.3237    0.0000 H       1  UNL1        0.0671
    147 H          12.3923   -0.5137    0.0000 H       1  UNL1        0.0648
    148 H          12.0632    1.9162    0.0000 H       1  UNL1        0.0647
    149 H          11.5263    0.6063    0.0000 H       1  UNL1        0.0651
    150 H          15.1982    0.1063    0.0000 H       1  UNL1        0.2101
    151 H          10.5866    1.9039    0.0000 H       1  UNL1        0.0584
    152 H          10.9851    1.2136    0.0000 H       1  UNL1        0.0584
    153 H          13.4662   -1.5138    0.0000 H       1  UNL1        0.2100
    154 H          10.6603   -0.8937    0.0000 H       1  UNL1        0.0938
    155 H          10.6603    3.1062    0.0000 H       1  UNL1        0.2095
    156 H          10.8681   -2.0138    0.0000 H       1  UNL1        0.0671
    157 H          10.3312   -3.3238    0.0000 H       1  UNL1        0.0648
    158 H          12.6002   -2.3938    0.0000 H       1  UNL1        0.0647
    159 H          11.7341   -3.5138    0.0000 H       1  UNL1        0.0651
    160 H           9.4651   -0.5837    0.0000 H       1  UNL1        0.2101
    161 H          12.5307   -3.6787    0.0000 H       1  UNL1        0.0584
    162 H          13.3278   -3.6787    0.0000 H       1  UNL1        0.0584
    163 H           8.9282   -2.8938    0.0000 H       1  UNL1        0.2100
    164 H          10.8681   -5.0138    0.0000 H       1  UNL1        0.0938
    165 H          14.3322   -3.0138    0.0000 H       1  UNL1        0.2095
    166 H          10.3312   -6.3238    0.0000 H       1  UNL1        0.0675
    167 H           8.9282   -6.5138    0.0000 H       1  UNL1        0.0651
    168 H           8.5991   -4.0838    0.0000 H       1  UNL1        0.0647
    169 H           8.0622   -5.3938    0.0000 H       1  UNL1        0.0647
    170 H           8.1316   -3.7288    0.0000 H       1  UNL1        0.0584
    171 H           7.3346   -3.7288    0.0000 H       1  UNL1        0.0584
    172 H          12.0632   -6.3238    0.0000 H       1  UNL1        0.0937
    173 H           8.5991   -7.0838    0.0000 H       1  UNL1        0.0938
    174 H           7.1962   -5.8938    0.0000 H       1  UNL1        0.2100
    175 H          13.4662   -6.5138    0.0000 H       1  UNL1        0.0671
    176 H           8.5991   -9.3238    0.0000 H       1  UNL1        0.0675
    177 H           7.1962   -9.5138    0.0000 H       1  UNL1        0.0648
    178 H           6.3301   -4.3938    0.0000 H       1  UNL1        0.2095
    179 H          14.3322   -5.3938    0.0000 H       1  UNL1        0.0647
    180 H           6.3301   -8.3938    0.0000 H       1  UNL1        0.0650
    181 H           6.8671   -7.0838    0.0000 H       1  UNL1        0.0621
    182 H          13.3278   -3.7288    0.0000 H       1  UNL1        0.0587
    183 H          12.5307   -3.7288    0.0000 H       1  UNL1        0.0587
    184 H          13.7953   -4.0838    0.0000 H       1  UNL1        0.0643
    185 H          13.4662   -7.5138    0.0000 H       1  UNL1        0.2101
    186 H          10.0021   -9.8938    0.0000 H       1  UNL1        0.0938
    187 H           6.3110   -6.6668    0.0000 H       1  UNL1        0.0255
    188 H           5.4641   -6.8938    0.0000 H       1  UNL1        0.0255
    189 H           5.6910   -7.7407    0.0000 H       1  UNL1        0.0255
    190 H           7.1962  -10.5137    0.0000 H       1  UNL1        0.2100
    191 H          15.1982   -5.8938    0.0000 H       1  UNL1        0.2100
    192 H           5.1350   -9.3238    0.0000 H       1  UNL1        0.0938
    193 H          10.8681  -11.0137    0.0000 H       1  UNL1        0.0671
    194 H          15.1982   -4.5138    0.0000 H       1  UNL1        0.2100
    195 H          10.3312  -12.3237    0.0000 H       1  UNL1        0.0648
    196 H           3.7320   -9.5138    0.0000 H       1  UNL1        0.0671
    197 H           8.0622  -11.3937    0.0000 H       1  UNL1        0.0621
    198 H           8.9282  -12.5137    0.0000 H       1  UNL1        0.0646
    199 H           2.8660   -8.3938    0.0000 H       1  UNL1        0.0648
    200 H           3.4030   -7.0838    0.0000 H       1  UNL1        0.0646
    201 H           4.8059   -6.8938    0.0000 H       1  UNL1        0.0621
    202 H           7.4231  -11.6668    0.0000 H       1  UNL1        0.0255
    203 H           7.1962  -12.5137    0.0000 H       1  UNL1        0.0255
    204 H           8.0431  -12.7407    0.0000 H       1  UNL1        0.0255
    205 H          11.7341  -10.5137    0.0000 H       1  UNL1        0.2101
    206 H           4.8890   -6.2038    0.0000 H       1  UNL1        0.0255
    207 H           4.2690   -5.5838    0.0000 H       1  UNL1        0.0255
    208 H           3.6490   -6.2038    0.0000 H       1  UNL1        0.0255
    209 H          11.1972  -12.8237    0.0000 H       1  UNL1        0.2100
    210 H           3.7320  -10.5137    0.0000 H       1  UNL1        0.2101
    211 H           8.9282  -13.5137    0.0000 H       1  UNL1        0.2100
    212 H           2.0000   -8.8938    0.0000 H       1  UNL1        0.2100
    213 H           2.5369   -6.5838    0.0000 H       1  UNL1        0.2100
@<TRIPOS>BOND
     1     1    42    1
     2     1    49    1
     3     2    49    1
     4     2    61    1
     5     3    48    2
     6     4    56    1
     7     4    63    1
     8     5    63    1
     9     5    66    1
    10     6    64    1
    11     6   150    1
    12     7    65    1
    13     7   153    1
    14     8    67    1
    15     8    69    1
    16     9    68    1
    17     9   155    1
    18    10    69    1
    19    10    72    1
    20    11    70    1
    21    11   160    1
    22    12    71    1
    23    12   163    1
    24    13    73    1
    25    13    75    1
    26    14    74    1
    27    14   165    1
    28    15    75    1
    29    15    78    1
    30    16    76    1
    31    16    81    1
    32    17    77    1
    33    17    82    1
    34    18    79    1
    35    18   174    1
    36    19    81    1
    37    19    89    1
    38    20    80    1
    39    20   178    1
    40    21    82    1
    41    21    88    1
    42    22    84    1
    43    22    91    1
    44    23    83    1
    45    23   185    1
    46    24    87    1
    47    24    93    1
    48    25    85    1
    49    25   190    1
    50    26    86    1
    51    26   191    1
    52    27    90    1
    53    27   194    1
    54    28    91    1
    55    28    97    1
    56    29    93    1
    57    29   100    1
    58    30    94    1
    59    30   205    1
    60    31    95    1
    61    31   209    1
    62    32    96    1
    63    32   210    1
    64    33    98    1
    65    33   211    1
    66    34    99    1
    67    34   212    1
    68    35   101    1
    69    35   213    1
    70    36    37    1
    71    36    38    1
    72    36    43    1
    73    36   104    1
    74    37    39    1
    75    37    48    1
    76    37    51    1
    77    38    40    1
    78    38    47    1
    79    38   105    1
    80    39    42    1
    81    39    44    1
    82    39   106    1
    83    40    41    1
    84    40    46    1
    85    40   107    1
    86    41    45    1
    87    41    52    1
    88    41    54    1
    89    42    43    1
    90    42   108    1
    91    43   109    1
    92    43   110    1
    93    44    49    1
    94    44    57    1
    95    44   111    1
    96    45    50    1
    97    45    53    1
    98    45   112    1
    99    46    48    1
   100    46   113    1
   101    46   114    1
   102    47    50    1
   103    47   115    1
   104    47   116    1
   105    49    58    1
   106    50   117    1
   107    50   118    1
   108    51   119    1
   109    51   120    1
   110    51   121    1
   111    52    55    1
   112    52   122    1
   113    52   123    1
   114    53    56    1
   115    53   124    1
   116    53   125    1
   117    54   126    1
   118    54   127    1
   119    54   128    1
   120    55    56    1
   121    55   129    1
   122    55   130    1
   123    56   131    1
   124    57   132    1
   125    57   133    1
   126    57   134    1
   127    58    59    1
   128    58   135    1
   129    58   136    1
   130    59    60    1
   131    59   137    1
   132    59   138    1
   133    60    61    1
   134    60    62    1
   135    60   139    1
   136    61   140    1
   137    61   141    1
   138    62   142    1
   139    62   143    1
   140    62   144    1
   141    63    64    1
   142    63   145    1
   143    64    65    1
   144    64   146    1
   145    65    67    1
   146    65   147    1
   147    66    67    1
   148    66    68    1
   149    66   148    1
   150    67   149    1
   151    68   151    1
   152    68   152    1
   153    69    70    1
   154    69   154    1
   155    70    71    1
   156    70   156    1
   157    71    73    1
   158    71   157    1
   159    72    73    1
   160    72    74    1
   161    72   158    1
   162    73   159    1
   163    74   161    1
   164    74   162    1
   165    75    76    1
   166    75   164    1
   167    76    77    1
   168    76   166    1
   169    77    79    1
   170    77   167    1
   171    78    79    1
   172    78    80    1
   173    78   168    1
   174    79   169    1
   175    80   170    1
   176    80   171    1
   177    81    83    1
   178    81   172    1
   179    82    84    1
   180    82   173    1
   181    83    86    1
   182    83   175    1
   183    84    85    1
   184    84   176    1
   185    85    87    1
   186    85   177    1
   187    86    90    1
   188    86   179    1
   189    87    88    1
   190    87   180    1
   191    88    92    1
   192    88   181    1
   193    89    90    1
   194    89   182    1
   195    89   183    1
   196    90   184    1
   197    91    94    1
   198    91   186    1
   199    92   187    1
   200    92   188    1
   201    92   189    1
   202    93    96    1
   203    93   192    1
   204    94    95    1
   205    94   193    1
   206    95    98    1
   207    95   195    1
   208    96    99    1
   209    96   196    1
   210    97    98    1
   211    97   102    1
   212    97   197    1
   213    98   198    1
   214    99   101    1
   215    99   199    1
   216   100   101    1
   217   100   103    1
   218   100   201    1
   219   101   200    1
   220   102   202    1
   221   102   203    1
   222   102   204    1
   223   103   206    1
   224   103   207    1
   225   103   208    1
