@<TRIPOS>MOLECULE
IMPHY003278
 24 24 0 0 0
SMALL
GASTEIGER

@<TRIPOS>ATOM
      1 O           4.5981    2.6144    0.0000 O.3     1  UNL1       -0.3920
      2 O           3.3660   -2.9244    0.0000 O.2     1  UNL1       -0.4703
      3 O           2.0000    0.1144    0.0000 O.2     1  UNL1       -0.2920
      4 C           3.7320    1.1144    0.0000 C.3     1  UNL1       -0.0201
      5 C           4.5981    1.6144    0.0000 C.3     1  UNL1        0.0528
      6 C           3.7320    0.1144    0.0000 C.3     1  UNL1        0.0129
      7 C           2.8660   -0.3856    0.0000 C.2     1  UNL1        0.1663
      8 C           5.4641    1.1144    0.0000 C.3     1  UNL1       -0.0389
      9 C           2.8660   -1.3856    0.0000 C.ar    1  UNL1        0.0550
     10 C           2.0570   -1.9734    0.0000 C.ar    1  UNL1       -0.0134
     11 C           3.6750   -1.9734    0.0000 C.ar    1  UNL1        0.1021
     12 C           2.3660   -2.9244    0.0000 C.ar    1  UNL1        0.0924
     13 H           3.5200    1.6970    0.0000 H       1  UNL1        0.0294
     14 H           3.1215    1.0068    0.0000 H       1  UNL1        0.0294
     15 H           5.1350    1.9244    0.0000 H       1  UNL1        0.0590
     16 H           3.9441   -0.4682    0.0000 H       1  UNL1        0.0346
     17 H           4.3426    0.2221    0.0000 H       1  UNL1        0.0346
     18 H           5.1541    0.5775    0.0000 H       1  UNL1        0.0254
     19 H           6.0010    0.8044    0.0000 H       1  UNL1        0.0254
     20 H           5.7741    1.6514    0.0000 H       1  UNL1        0.0254
     21 H           5.1350    2.9244    0.0000 H       1  UNL1        0.2098
     22 H           1.4674   -1.7818    0.0000 H       1  UNL1        0.0656
     23 H           4.2647   -1.7818    0.0000 H       1  UNL1        0.1036
     24 H           2.0016   -3.4260    0.0000 H       1  UNL1        0.1029
@<TRIPOS>BOND
     1     1     5    1
     2     1    21    1
     3     2    11   ar
     4     2    12   ar
     5     3     7    2
     6     4     5    1
     7     4     6    1
     8     4    13    1
     9     4    14    1
    10     5     8    1
    11     5    15    1
    12     6     7    1
    13     6    16    1
    14     6    17    1
    15     7     9    1
    16     8    18    1
    17     8    19    1
    18     8    20    1
    19     9    10   ar
    20     9    11   ar
    21    10    12   ar
    22    10    22    1
    23    11    23    1
    24    12    24    1
