@<TRIPOS>MOLECULE
IMPHY004565
 28 31 0 0 0
SMALL
GASTEIGER

@<TRIPOS>ATOM
      1 O           5.9065   -1.1814    0.0000 O.2     1  UNL1       -0.4537
      2 O           8.0505    0.8871    0.0000 O.2     1  UNL1       -0.4214
      3 O           6.7634    2.0460    0.0000 O.2     1  UNL1       -0.2444
      4 O           2.4170   -0.2772    0.0000 O.3     1  UNL1       -0.5066
      5 O          10.6901   -1.4571    0.0000 O.3     1  UNL1       -0.5066
      6 C           6.4033    0.3518    0.0000 C.ar    1  UNL1        0.1128
      7 C           6.7123   -0.5992    0.0000 C.ar    1  UNL1        0.1538
      8 C           5.4092    0.3492    0.0000 C.ar    1  UNL1        0.0351
      9 C           7.6904   -0.8071    0.0000 C.ar    1  UNL1        0.0607
     10 C           5.1028   -0.5964    0.0000 C.ar    1  UNL1        0.1400
     11 C           8.3596   -0.0640    0.0000 C.ar    1  UNL1        0.1461
     12 C           7.0724    1.0950    0.0000 C.ar    1  UNL1        0.3488
     13 C           4.7276    1.1287    0.0000 C.ar    1  UNL1       -0.0467
     14 C           7.9970   -1.8026    0.0000 C.ar    1  UNL1       -0.0441
     15 C           4.0936   -0.8282    0.0000 C.ar    1  UNL1        0.0228
     16 C           9.3816   -0.2648    0.0000 C.ar    1  UNL1        0.0230
     17 C           3.7133    0.9204    0.0000 C.ar    1  UNL1       -0.0194
     18 C           3.3942   -0.0647    0.0000 C.ar    1  UNL1        0.1204
     19 C           9.0142   -2.0271    0.0000 C.ar    1  UNL1       -0.0193
     20 C           9.7112   -1.2530    0.0000 C.ar    1  UNL1        0.1204
     21 H           4.9255    1.7163    0.0000 H       1  UNL1        0.0626
     22 H           7.5768   -2.2586    0.0000 H       1  UNL1        0.0627
     23 H           3.9094   -1.4202    0.0000 H       1  UNL1        0.0691
     24 H           9.7912    0.2007    0.0000 H       1  UNL1        0.0691
     25 H           3.2998    1.3824    0.0000 H       1  UNL1        0.0654
     26 H           9.2035   -2.6174    0.0000 H       1  UNL1        0.0654
     27 H           2.0000    0.1816    0.0000 H       1  UNL1        0.2921
     28 H          10.8840   -2.0460    0.0000 H       1  UNL1        0.2921
@<TRIPOS>BOND
     1     1     7   ar
     2     1    10   ar
     3     2    11   ar
     4     2    12   ar
     5     3    12    2
     6     4    18    1
     7     4    27    1
     8     5    20    1
     9     5    28    1
    10     6     7   ar
    11     6     8   ar
    12     6    12   ar
    13     7     9   ar
    14     8    10   ar
    15     8    13   ar
    16     9    11   ar
    17     9    14   ar
    18    10    15   ar
    19    11    16   ar
    20    13    17   ar
    21    13    21    1
    22    14    19   ar
    23    14    22    1
    24    15    18   ar
    25    15    23    1
    26    16    20   ar
    27    16    24    1
    28    17    18   ar
    29    17    25    1
    30    19    20   ar
    31    19    26    1
