@<TRIPOS>MOLECULE
IMPHY008007
 24 24 0 0 0
SMALL
GASTEIGER

@<TRIPOS>ATOM
      1 O           4.2690   -2.5000    0.0000 O.3     1  UNL1       -0.4915
      2 O           2.5369   -1.5000    0.0000 O.3     1  UNL1       -0.5033
      3 C           4.2690    0.5000    0.0000 C.ar    1  UNL1       -0.0217
      4 C           4.2690   -1.5000    0.0000 C.ar    1  UNL1        0.1613
      5 C           3.4030    0.0000    0.0000 C.ar    1  UNL1       -0.0094
      6 C           3.4030   -1.0000    0.0000 C.ar    1  UNL1        0.1590
      7 C           5.1350    0.0000    0.0000 C.ar    1  UNL1       -0.0509
      8 C           5.1350   -1.0000    0.0000 C.ar    1  UNL1       -0.0158
      9 C           4.2690    1.5000    0.0000 C.2     1  UNL1       -0.0587
     10 C           5.1350    2.0000    0.0000 C.2     1  UNL1       -0.0865
     11 C           5.1350    3.0000    0.0000 C.3     1  UNL1       -0.0465
     12 C           5.1350   -3.0000    0.0000 C.3     1  UNL1        0.0790
     13 H           2.8660    0.3100    0.0000 H       1  UNL1        0.0661
     14 H           5.6720    0.3100    0.0000 H       1  UNL1        0.0625
     15 H           5.6720   -1.3100    0.0000 H       1  UNL1        0.0655
     16 H           3.7320    1.8100    0.0000 H       1  UNL1        0.0620
     17 H           5.6720    1.6900    0.0000 H       1  UNL1        0.0569
     18 H           5.7550    3.0000    0.0000 H       1  UNL1        0.0272
     19 H           5.1350    3.6200    0.0000 H       1  UNL1        0.0272
     20 H           4.5150    3.0000    0.0000 H       1  UNL1        0.0272
     21 H           4.8250   -3.5369    0.0000 H       1  UNL1        0.0660
     22 H           5.6720   -3.3100    0.0000 H       1  UNL1        0.0660
     23 H           5.4450   -2.4631    0.0000 H       1  UNL1        0.0660
     24 H           2.0000   -1.1900    0.0000 H       1  UNL1        0.2923
@<TRIPOS>BOND
     1     1     4    1
     2     1    12    1
     3     2     6    1
     4     2    24    1
     5     3     5   ar
     6     3     7   ar
     7     3     9    1
     8     4     6   ar
     9     4     8   ar
    10     5     6   ar
    11     5    13    1
    12     7     8   ar
    13     7    14    1
    14     8    15    1
    15     9    10    2
    16     9    16    1
    17    10    11    1
    18    10    17    1
    19    11    18    1
    20    11    19    1
    21    11    20    1
    22    12    21    1
    23    12    22    1
    24    12    23    1
