@<TRIPOS>MOLECULE
IMPHY002177
 42 42 0 0 0
SMALL
GASTEIGER

@<TRIPOS>ATOM
      1 O           2.5369   -1.1550    0.0000 O.3     1  UNL1       -0.3871
      2 O           6.0010    3.8450    0.0000 O.3     1  UNL1       -0.3891
      3 O           6.0010   -3.1550    0.0000 O.2     1  UNL1       -0.2924
      4 C           4.2690   -1.1550    0.0000 C.3     1  UNL1        0.0164
      5 C           3.4030   -1.6550    0.0000 C.3     1  UNL1        0.0808
      6 C           4.2690   -0.1550    0.0000 C.2     1  UNL1       -0.0704
      7 C           5.1350    0.3450    0.0000 C.3     1  UNL1       -0.0315
      8 C           5.1350   -1.6550    0.0000 C.3     1  UNL1        0.0193
      9 C           5.1350    1.3450    0.0000 C.3     1  UNL1       -0.0468
     10 C           6.0010    1.8450    0.0000 C.3     1  UNL1       -0.0242
     11 C           6.0010    2.8450    0.0000 C.3     1  UNL1        0.0605
     12 C           3.4030   -2.6550    0.0000 C.2     1  UNL1       -0.0491
     13 C           5.1350   -2.6550    0.0000 C.2     1  UNL1        0.1594
     14 C           4.2690   -3.1550    0.0000 C.2     1  UNL1       -0.0095
     15 C           7.0010    2.8450    0.0000 C.3     1  UNL1       -0.0363
     16 C           5.0010    2.8450    0.0000 C.3     1  UNL1       -0.0363
     17 C           3.4030    0.3450    0.0000 C.2     1  UNL1       -0.0991
     18 C           4.2690   -4.1550    0.0000 C.3     1  UNL1       -0.0366
     19 H           4.8059   -0.8450    0.0000 H       1  UNL1        0.0378
     20 H           3.4030   -1.0350    0.0000 H       1  UNL1        0.0644
     21 H           5.3471   -0.2376    0.0000 H       1  UNL1        0.0310
     22 H           5.7456    0.4527    0.0000 H       1  UNL1        0.0310
     23 H           5.7456   -1.7627    0.0000 H       1  UNL1        0.0352
     24 H           5.3471   -1.0724    0.0000 H       1  UNL1        0.0352
     25 H           4.9230    1.9276    0.0000 H       1  UNL1        0.0269
     26 H           4.5244    1.2373    0.0000 H       1  UNL1        0.0269
     27 H           6.2131    1.2624    0.0000 H       1  UNL1        0.0293
     28 H           6.6116    1.9527    0.0000 H       1  UNL1        0.0293
     29 H           2.8660   -2.9650    0.0000 H       1  UNL1        0.0601
     30 H           7.0010    2.2250    0.0000 H       1  UNL1        0.0257
     31 H           7.6210    2.8450    0.0000 H       1  UNL1        0.0257
     32 H           7.0010    3.4650    0.0000 H       1  UNL1        0.0257
     33 H           5.0010    3.4650    0.0000 H       1  UNL1        0.0257
     34 H           4.3810    2.8450    0.0000 H       1  UNL1        0.0257
     35 H           5.0010    2.2250    0.0000 H       1  UNL1        0.0257
     36 H           3.4030    0.9650    0.0000 H       1  UNL1        0.0535
     37 H           2.8660    0.0350    0.0000 H       1  UNL1        0.0535
     38 H           2.0000   -1.4650    0.0000 H       1  UNL1        0.2102
     39 H           3.6490   -4.1550    0.0000 H       1  UNL1        0.0279
     40 H           4.2690   -4.7750    0.0000 H       1  UNL1        0.0279
     41 H           4.8890   -4.1550    0.0000 H       1  UNL1        0.0279
     42 H           6.5380    4.1550    0.0000 H       1  UNL1        0.2101
@<TRIPOS>BOND
     1     5     1    1
     2     1    38    1
     3     2    11    1
     4     2    42    1
     5     3    13    2
     6     4     5    1
     7     4     6    1
     8     4     8    1
     9     4    19    1
    10     5    12    1
    11     5    20    1
    12     6     7    1
    13     6    17    2
    14     7     9    1
    15     7    21    1
    16     7    22    1
    17     8    13    1
    18     8    23    1
    19     8    24    1
    20     9    10    1
    21     9    25    1
    22     9    26    1
    23    10    11    1
    24    10    27    1
    25    10    28    1
    26    11    15    1
    27    11    16    1
    28    12    14    2
    29    12    29    1
    30    13    14    1
    31    14    18    1
    32    15    30    1
    33    15    31    1
    34    15    32    1
    35    16    33    1
    36    16    34    1
    37    16    35    1
    38    17    36    1
    39    17    37    1
    40    18    39    1
    41    18    40    1
    42    18    41    1
