@<TRIPOS>MOLECULE
IMPHY012543
 58 61 0 0 0
SMALL
GASTEIGER

@<TRIPOS>ATOM
      1 O           5.1350   -2.0357    0.0000 O.3     1  UNL1       -0.3313
      2 O           6.8671   -2.0357    0.0000 O.3     1  UNL1       -0.4570
      3 O           5.1350   -5.0357    0.0000 O.3     1  UNL1       -0.3864
      4 O           3.4030   -4.0357    0.0000 O.3     1  UNL1       -0.3865
      5 O           6.8671   -4.0357    0.0000 O.3     1  UNL1       -0.3829
      6 O           5.1350    1.9643    0.0000 O.3     1  UNL1       -0.4838
      7 O           2.5369   -2.5357    0.0000 O.3     1  UNL1       -0.3924
      8 O           8.5991   -1.0357    0.0000 O.3     1  UNL1       -0.4885
      9 O           8.5991    0.9643    0.0000 O.3     1  UNL1       -0.5032
     10 O           3.3909    5.0336    0.0000 O.3     1  UNL1       -0.5066
     11 C           5.1350   -4.0357    0.0000 C.3     1  UNL1        0.1152
     12 C           4.2690   -3.5357    0.0000 C.3     1  UNL1        0.1120
     13 C           6.0010   -3.5357    0.0000 C.3     1  UNL1        0.1454
     14 C           4.2690   -2.5357    0.0000 C.3     1  UNL1        0.1140
     15 C           6.0010   -2.5357    0.0000 C.3     1  UNL1        0.2310
     16 C           3.4030   -2.0357    0.0000 C.3     1  UNL1        0.0731
     17 C           5.1350    0.9643    0.0000 C.3     1  UNL1        0.1257
     18 C           4.2690    0.4643    0.0000 C.3     1  UNL1       -0.0074
     19 C           6.0010    0.4643    0.0000 C.ar    1  UNL1       -0.0002
     20 C           3.4030    0.9643    0.0000 C.3     1  UNL1       -0.0206
     21 C           6.8671   -1.0357    0.0000 C.ar    1  UNL1        0.1694
     22 C           6.0010   -0.5357    0.0000 C.ar    1  UNL1       -0.0093
     23 C           3.4030    1.9643    0.0000 C.ar    1  UNL1       -0.0053
     24 C           4.2690    2.4643    0.0000 C.ar    1  UNL1        0.1280
     25 C           7.7331   -0.5357    0.0000 C.ar    1  UNL1        0.2034
     26 C           6.8671    0.9643    0.0000 C.ar    1  UNL1       -0.0096
     27 C           7.7331    0.4643    0.0000 C.ar    1  UNL1        0.1625
     28 C           2.4930    2.4712    0.0000 C.ar    1  UNL1       -0.0517
     29 C           4.2850    3.5058    0.0000 C.ar    1  UNL1        0.0218
     30 C           2.4849    3.5128    0.0000 C.ar    1  UNL1       -0.0197
     31 C           3.3870    4.0336    0.0000 C.ar    1  UNL1        0.1203
     32 C           9.4651   -0.5357    0.0000 C.3     1  UNL1        0.0791
     33 H           4.5981   -4.3457    0.0000 H       1  UNL1        0.0648
     34 H           4.2690   -4.1557    0.0000 H       1  UNL1        0.0647
     35 H           6.0010   -4.1557    0.0000 H       1  UNL1        0.0683
     36 H           4.2690   -1.9157    0.0000 H       1  UNL1        0.0647
     37 H           6.0010   -1.9157    0.0000 H       1  UNL1        0.1084
     38 H           3.8015   -1.5607    0.0000 H       1  UNL1        0.0584
     39 H           3.0044   -1.5607    0.0000 H       1  UNL1        0.0584
     40 H           5.1350    0.3443    0.0000 H       1  UNL1        0.0784
     41 H           3.8705   -0.0106    0.0000 H       1  UNL1        0.0307
     42 H           4.6675   -0.0106    0.0000 H       1  UNL1        0.0307
     43 H           4.5981   -5.3457    0.0000 H       1  UNL1        0.2100
     44 H           3.4030   -4.6557    0.0000 H       1  UNL1        0.2100
     45 H           2.7924    1.0720    0.0000 H       1  UNL1        0.0316
     46 H           3.1909    0.3817    0.0000 H       1  UNL1        0.0316
     47 H           6.8671   -4.6557    0.0000 H       1  UNL1        0.2102
     48 H           5.4641   -0.8457    0.0000 H       1  UNL1        0.0659
     49 H           6.8671    1.5843    0.0000 H       1  UNL1        0.0659
     50 H           2.0000   -2.2257    0.0000 H       1  UNL1        0.2095
     51 H           1.9596    2.1550    0.0000 H       1  UNL1        0.0623
     52 H           4.8255    3.8096    0.0000 H       1  UNL1        0.0691
     53 H           1.9468    3.8207    0.0000 H       1  UNL1        0.0654
     54 H           8.5991    1.5843    0.0000 H       1  UNL1        0.2923
     55 H           9.7751   -1.0726    0.0000 H       1  UNL1        0.0660
     56 H          10.0021   -0.2257    0.0000 H       1  UNL1        0.0660
     57 H           9.1551    0.0013    0.0000 H       1  UNL1        0.0660
     58 H           2.8551    5.3457    0.0000 H       1  UNL1        0.2921
@<TRIPOS>BOND
     1     1    14    1
     2     1    15    1
     3    15     2    1
     4     2    21    1
     5    11     3    1
     6     3    43    1
     7    12     4    1
     8     4    44    1
     9    13     5    1
    10     5    47    1
    11     6    17    1
    12     6    24    1
    13     7    16    1
    14     7    50    1
    15     8    25    1
    16     8    32    1
    17     9    27    1
    18     9    54    1
    19    10    31    1
    20    10    58    1
    21    11    12    1
    22    11    13    1
    23    11    33    1
    24    12    14    1
    25    12    34    1
    26    13    15    1
    27    13    35    1
    28    14    16    1
    29    14    36    1
    30    15    37    1
    31    16    38    1
    32    16    39    1
    33    17    18    1
    34    17    19    1
    35    17    40    1
    36    18    20    1
    37    18    41    1
    38    18    42    1
    39    19    22   ar
    40    19    26   ar
    41    20    23    1
    42    20    45    1
    43    20    46    1
    44    21    22   ar
    45    21    25   ar
    46    22    48    1
    47    23    24   ar
    48    23    28   ar
    49    24    29   ar
    50    25    27   ar
    51    26    27   ar
    52    26    49    1
    53    28    30   ar
    54    28    51    1
    55    29    31   ar
    56    29    52    1
    57    30    31   ar
    58    30    53    1
    59    32    55    1
    60    32    56    1
    61    32    57    1
