@<TRIPOS>MOLECULE
IMPHY005428
 24 26 0 0 0
SMALL
GASTEIGER

@<TRIPOS>ATOM
      1 O           7.3424   -1.5374    0.0000 O.2     1  UNL1       -0.4627
      2 O           3.7702   -1.7673    0.0000 O.2     1  UNL1       -0.4219
      3 O           5.5301    1.2673    0.0000 O.3     1  UNL1       -0.4937
      4 O           2.0000   -1.7568    0.0000 O.2     1  UNL1       -0.2452
      5 C           6.3961   -0.2327    0.0000 C.ar    1  UNL1        0.0625
      6 C           4.6641   -0.2327    0.0000 C.ar    1  UNL1        0.0600
      7 C           5.5301    0.2673    0.0000 C.ar    1  UNL1        0.1414
      8 C           6.3961   -1.2327    0.0000 C.ar    1  UNL1        0.1418
      9 C           4.6641   -1.2327    0.0000 C.ar    1  UNL1        0.1461
     10 C           5.5301   -1.7327    0.0000 C.ar    1  UNL1        0.0245
     11 C           7.3424    0.0721    0.0000 C.ar    1  UNL1       -0.0126
     12 C           3.7702    0.3020    0.0000 C.ar    1  UNL1       -0.0408
     13 C           7.9260   -0.7327    0.0000 C.ar    1  UNL1        0.0933
     14 C           2.8641   -0.2119    0.0000 C.ar    1  UNL1        0.0237
     15 C           2.8641   -1.2535    0.0000 C.ar    1  UNL1        0.3372
     16 C           6.3961    1.7673    0.0000 C.3     1  UNL1        0.0788
     17 H           5.5301   -2.3527    0.0000 H       1  UNL1        0.0692
     18 H           7.5350    0.6614    0.0000 H       1  UNL1        0.0656
     19 H           3.7773    0.9220    0.0000 H       1  UNL1        0.0628
     20 H           8.5460   -0.7327    0.0000 H       1  UNL1        0.1030
     21 H           2.3284    0.1002    0.0000 H       1  UNL1        0.0689
     22 H           6.7062    1.2304    0.0000 H       1  UNL1        0.0660
     23 H           6.9331    2.0773    0.0000 H       1  UNL1        0.0660
     24 H           6.0862    2.3043    0.0000 H       1  UNL1        0.0660
@<TRIPOS>BOND
     1     1     8   ar
     2     1    13   ar
     3     2     9   ar
     4     2    15   ar
     5     3     7    1
     6     3    16    1
     7     4    15    2
     8     5     7   ar
     9     5     8   ar
    10     5    11   ar
    11     6     7   ar
    12     6     9   ar
    13     6    12   ar
    14     8    10   ar
    15     9    10   ar
    16    10    17    1
    17    11    13   ar
    18    11    18    1
    19    12    14   ar
    20    12    19    1
    21    13    20    1
    22    14    15   ar
    23    14    21    1
    24    16    22    1
    25    16    23    1
    26    16    24    1
