@<TRIPOS>MOLECULE
IMPHY008582
 26 26 0 0 0
SMALL
GASTEIGER

@<TRIPOS>ATOM
      1 O           2.5369    0.4050    0.0000 O.3     1  UNL1       -0.5056
      2 O           4.2690   -2.5950    0.0000 O.3     1  UNL1       -0.5064
      3 O           5.1350    1.9050    0.0000 O.3     1  UNL1       -0.4644
      4 O           3.4030    1.9050    0.0000 O.2     1  UNL1       -0.2448
      5 C           5.1350   -0.0950    0.0000 C.ar    1  UNL1       -0.0295
      6 C           4.2690    0.4050    0.0000 C.ar    1  UNL1        0.1036
      7 C           3.4030   -1.0950    0.0000 C.ar    1  UNL1        0.0331
      8 C           3.4030   -0.0950    0.0000 C.ar    1  UNL1        0.1374
      9 C           4.2690   -1.5950    0.0000 C.ar    1  UNL1        0.1235
     10 C           5.1350   -1.0950    0.0000 C.ar    1  UNL1       -0.0160
     11 C           6.0010    0.4050    0.0000 C.3     1  UNL1       -0.0387
     12 C           2.5369   -1.5950    0.0000 C.3     1  UNL1       -0.0327
     13 C           4.2690    1.4050    0.0000 C.2     1  UNL1        0.3428
     14 C           5.1350    2.9050    0.0000 C.3     1  UNL1        0.0820
     15 H           5.6720   -1.4050    0.0000 H       1  UNL1        0.0657
     16 H           6.3110   -0.1319    0.0000 H       1  UNL1        0.0278
     17 H           6.5380    0.7150    0.0000 H       1  UNL1        0.0278
     18 H           5.6910    0.9419    0.0000 H       1  UNL1        0.0278
     19 H           2.2269   -1.0581    0.0000 H       1  UNL1        0.0280
     20 H           2.0000   -1.9050    0.0000 H       1  UNL1        0.0280
     21 H           2.8469   -2.1319    0.0000 H       1  UNL1        0.0280
     22 H           2.0000    0.0950    0.0000 H       1  UNL1        0.2922
     23 H           4.8059   -2.9050    0.0000 H       1  UNL1        0.2921
     24 H           5.7550    2.9050    0.0000 H       1  UNL1        0.0661
     25 H           5.1350    3.5250    0.0000 H       1  UNL1        0.0661
     26 H           4.5150    2.9050    0.0000 H       1  UNL1        0.0661
@<TRIPOS>BOND
     1     1     8    1
     2     1    22    1
     3     2     9    1
     4     2    23    1
     5     3    13    1
     6     3    14    1
     7     4    13    2
     8     5     6   ar
     9     5    10   ar
    10     5    11    1
    11     6     8   ar
    12     6    13    1
    13     7     8   ar
    14     7     9   ar
    15     7    12    1
    16     9    10   ar
    17    10    15    1
    18    11    16    1
    19    11    17    1
    20    11    18    1
    21    12    19    1
    22    12    20    1
    23    12    21    1
    24    14    24    1
    25    14    25    1
    26    14    26    1
