@<TRIPOS>MOLECULE
IMPHY011086
 38 37 0 0 0
SMALL
GASTEIGER

@<TRIPOS>ATOM
      1 O          12.3923   -0.0600    0.0000 O.2     1  UNL1       -0.2961
      2 C           8.0622    0.4400    0.0000 C.3     1  UNL1       -0.0285
      3 C           7.1962   -0.0600    0.0000 C.2     1  UNL1       -0.0759
      4 C           8.9282   -0.0600    0.0000 C.3     1  UNL1       -0.0304
      5 C           6.3301    0.4400    0.0000 C.2     1  UNL1       -0.0813
      6 C           5.4641   -0.0600    0.0000 C.3     1  UNL1       -0.0158
      7 C           7.1962   -1.0600    0.0000 C.3     1  UNL1       -0.0438
      8 C           9.7942    0.4400    0.0000 C.2     1  UNL1       -0.0778
      9 C           4.5981    0.4400    0.0000 C.2     1  UNL1       -0.0774
     10 C          10.6603   -0.0600    0.0000 C.2     1  UNL1       -0.0152
     11 C           3.7320   -0.0600    0.0000 C.2     1  UNL1       -0.0546
     12 C          10.6603   -1.0600    0.0000 C.3     1  UNL1       -0.0370
     13 C           3.7320   -1.0600    0.0000 C.3     1  UNL1       -0.0400
     14 C          11.5263    0.4400    0.0000 C.2     1  UNL1        0.1457
     15 C           2.8660    0.4400    0.0000 C.2     1  UNL1       -0.0662
     16 C           2.0000   -0.0600    0.0000 C.2     1  UNL1       -0.0985
     17 H           8.4607    0.9149    0.0000 H       1  UNL1        0.0313
     18 H           7.6636    0.9149    0.0000 H       1  UNL1        0.0313
     19 H           8.5297   -0.5349    0.0000 H       1  UNL1        0.0311
     20 H           9.3267   -0.5349    0.0000 H       1  UNL1        0.0311
     21 H           6.3301    1.0600    0.0000 H       1  UNL1        0.0575
     22 H           5.0656   -0.5349    0.0000 H       1  UNL1        0.0350
     23 H           5.8626   -0.5349    0.0000 H       1  UNL1        0.0350
     24 H           6.5762   -1.0600    0.0000 H       1  UNL1        0.0274
     25 H           7.1962   -1.6800    0.0000 H       1  UNL1        0.0274
     26 H           7.8162   -1.0600    0.0000 H       1  UNL1        0.0274
     27 H           9.7942    1.0600    0.0000 H       1  UNL1        0.0576
     28 H           4.5981    1.0600    0.0000 H       1  UNL1        0.0578
     29 H          10.0403   -1.0600    0.0000 H       1  UNL1        0.0278
     30 H          10.6603   -1.6800    0.0000 H       1  UNL1        0.0278
     31 H          11.2803   -1.0600    0.0000 H       1  UNL1        0.0278
     32 H           3.1120   -1.0600    0.0000 H       1  UNL1        0.0277
     33 H           3.7320   -1.6800    0.0000 H       1  UNL1        0.0277
     34 H           4.3520   -1.0600    0.0000 H       1  UNL1        0.0277
     35 H          11.5263    1.0600    0.0000 H       1  UNL1        0.1078
     36 H           2.8660    1.0600    0.0000 H       1  UNL1        0.0614
     37 H           1.4631    0.2500    0.0000 H       1  UNL1        0.0535
     38 H           2.0000   -0.6800    0.0000 H       1  UNL1        0.0535
@<TRIPOS>BOND
     1     1    14    2
     2     2     3    1
     3     2     4    1
     4     2    17    1
     5     2    18    1
     6     3     5    2
     7     3     7    1
     8     4     8    1
     9     4    19    1
    10     4    20    1
    11     5     6    1
    12     5    21    1
    13     6     9    1
    14     6    22    1
    15     6    23    1
    16     7    24    1
    17     7    25    1
    18     7    26    1
    19     8    10    2
    20     8    27    1
    21     9    11    2
    22     9    28    1
    23    10    12    1
    24    10    14    1
    25    11    13    1
    26    11    15    1
    27    12    29    1
    28    12    30    1
    29    12    31    1
    30    13    32    1
    31    13    33    1
    32    13    34    1
    33    14    35    1
    34    15    16    2
    35    15    36    1
    36    16    37    1
    37    16    38    1
