@<TRIPOS>MOLECULE
IMPHY012098
 60 59 0 0 0
SMALL
GASTEIGER

@<TRIPOS>ATOM
      1 O           3.7320   -2.2500    0.0000 O.3     1  UNL1       -0.4649
      2 O           4.5981   -3.7500    0.0000 O.2     1  UNL1       -0.2509
      3 C          14.1244    0.7500    0.0000 C.3     1  UNL1       -0.0530
      4 C          13.2583    0.2500    0.0000 C.3     1  UNL1       -0.0528
      5 C           8.9282   -2.2500    0.0000 C.3     1  UNL1       -0.0528
      6 C           8.0622   -2.7500    0.0000 C.3     1  UNL1       -0.0530
      7 C          14.1244    1.7500    0.0000 C.3     1  UNL1       -0.0531
      8 C          13.2583   -0.7500    0.0000 C.3     1  UNL1       -0.0496
      9 C           9.7942   -2.7500    0.0000 C.3     1  UNL1       -0.0496
     10 C           7.1962   -2.2500    0.0000 C.3     1  UNL1       -0.0526
     11 C          14.9904    2.2500    0.0000 C.3     1  UNL1       -0.0533
     12 C          12.3923   -1.2500    0.0000 C.3     1  UNL1       -0.0348
     13 C          10.6603   -2.2500    0.0000 C.3     1  UNL1       -0.0348
     14 C           6.3301   -2.7500    0.0000 C.3     1  UNL1       -0.0430
     15 C          14.9904    3.2500    0.0000 C.3     1  UNL1       -0.0559
     16 C          12.3923   -2.2500    0.0000 C.2     1  UNL1       -0.0879
     17 C          11.5263   -2.7500    0.0000 C.2     1  UNL1       -0.0879
     18 C           5.4641   -2.2500    0.0000 C.3     1  UNL1        0.0449
     19 C          15.8564    3.7500    0.0000 C.3     1  UNL1       -0.0653
     20 C           4.5981   -2.7500    0.0000 C.2     1  UNL1        0.3071
     21 C           2.8660   -2.7500    0.0000 C.3     1  UNL1        0.0896
     22 C           2.0000   -2.2500    0.0000 C.3     1  UNL1       -0.0306
     23 H          14.3364    0.1674    0.0000 H       1  UNL1        0.0265
     24 H          14.7349    0.8577    0.0000 H       1  UNL1        0.0265
     25 H          13.0463    0.8326    0.0000 H       1  UNL1        0.0265
     26 H          12.6477    0.1423    0.0000 H       1  UNL1        0.0265
     27 H           9.3267   -1.7750    0.0000 H       1  UNL1        0.0265
     28 H           8.5297   -1.7750    0.0000 H       1  UNL1        0.0265
     29 H           7.6636   -3.2250    0.0000 H       1  UNL1        0.0265
     30 H           8.4607   -3.2250    0.0000 H       1  UNL1        0.0265
     31 H          13.9123    2.3326    0.0000 H       1  UNL1        0.0265
     32 H          13.5138    1.6423    0.0000 H       1  UNL1        0.0265
     33 H          13.4704   -1.3326    0.0000 H       1  UNL1        0.0268
     34 H          13.8689   -0.6423    0.0000 H       1  UNL1        0.0268
     35 H           9.3957   -3.2250    0.0000 H       1  UNL1        0.0268
     36 H          10.1928   -3.2250    0.0000 H       1  UNL1        0.0268
     37 H           7.5947   -1.7750    0.0000 H       1  UNL1        0.0265
     38 H           6.7976   -1.7750    0.0000 H       1  UNL1        0.0265
     39 H          15.2024    1.6674    0.0000 H       1  UNL1        0.0265
     40 H          15.6010    2.3577    0.0000 H       1  UNL1        0.0265
     41 H          12.1803   -0.6674    0.0000 H       1  UNL1        0.0307
     42 H          11.7817   -1.3577    0.0000 H       1  UNL1        0.0307
     43 H          11.0588   -1.7750    0.0000 H       1  UNL1        0.0307
     44 H          10.2617   -1.7750    0.0000 H       1  UNL1        0.0307
     45 H           5.9316   -3.2250    0.0000 H       1  UNL1        0.0270
     46 H           6.7287   -3.2250    0.0000 H       1  UNL1        0.0270
     47 H          14.7783    3.8326    0.0000 H       1  UNL1        0.0263
     48 H          14.3798    3.1423    0.0000 H       1  UNL1        0.0263
     49 H          12.9292   -2.5600    0.0000 H       1  UNL1        0.0569
     50 H          11.5263   -3.3700    0.0000 H       1  UNL1        0.0569
     51 H           5.8626   -1.7750    0.0000 H       1  UNL1        0.0377
     52 H           5.0656   -1.7750    0.0000 H       1  UNL1        0.0377
     53 H          16.1664    3.2131    0.0000 H       1  UNL1        0.0230
     54 H          16.3933    4.0600    0.0000 H       1  UNL1        0.0230
     55 H          15.5464    4.2869    0.0000 H       1  UNL1        0.0230
     56 H           2.4675   -3.2250    0.0000 H       1  UNL1        0.0694
     57 H           3.2646   -3.2250    0.0000 H       1  UNL1        0.0694
     58 H           2.3100   -1.7131    0.0000 H       1  UNL1        0.0262
     59 H           1.4631   -1.9400    0.0000 H       1  UNL1        0.0262
     60 H           1.6900   -2.7869    0.0000 H       1  UNL1        0.0262
@<TRIPOS>BOND
     1     1    20    1
     2     1    21    1
     3     2    20    2
     4     3     4    1
     5     3     7    1
     6     3    23    1
     7     3    24    1
     8     4     8    1
     9     4    25    1
    10     4    26    1
    11     5     6    1
    12     5     9    1
    13     5    27    1
    14     5    28    1
    15     6    10    1
    16     6    29    1
    17     6    30    1
    18     7    11    1
    19     7    31    1
    20     7    32    1
    21     8    12    1
    22     8    33    1
    23     8    34    1
    24     9    13    1
    25     9    35    1
    26     9    36    1
    27    10    14    1
    28    10    37    1
    29    10    38    1
    30    11    15    1
    31    11    39    1
    32    11    40    1
    33    12    16    1
    34    12    41    1
    35    12    42    1
    36    13    17    1
    37    13    43    1
    38    13    44    1
    39    14    18    1
    40    14    45    1
    41    14    46    1
    42    15    19    1
    43    15    47    1
    44    15    48    1
    45    16    17    2
    46    16    49    1
    47    17    50    1
    48    18    20    1
    49    18    51    1
    50    18    52    1
    51    19    53    1
    52    19    54    1
    53    19    55    1
    54    21    22    1
    55    21    56    1
    56    21    57    1
    57    22    58    1
    58    22    59    1
    59    22    60    1
