@<TRIPOS>MOLECULE
IMPHY011214
 84 89 0 0 0
SMALL
GASTEIGER

@<TRIPOS>ATOM
      1 O          11.3900    2.3583    0.0000 O.3     1  UNL1       -0.3877
      2 O           8.7823   -0.1317    0.0000 O.3     1  UNL1       -0.3915
      3 O           6.0010    3.4314    0.0000 O.3     1  UNL1       -0.3480
      4 O          13.5826   -2.2128    0.0000 O.3     1  UNL1       -0.4571
      5 O           4.2690    3.4314    0.0000 O.3     1  UNL1       -0.3456
      6 O          12.3199   -3.4702    0.0000 O.2     1  UNL1       -0.2456
      7 O           4.2690    0.4314    0.0000 O.3     1  UNL1       -0.3770
      8 O           2.5369    1.4314    0.0000 O.3     1  UNL1       -0.3867
      9 C          11.3862    1.3583    0.0000 C.3     1  UNL1        0.0752
     10 C          10.5221    1.8616    0.0000 C.3     1  UNL1       -0.0059
     11 C           9.6541    1.3649    0.0000 C.3     1  UNL1       -0.0039
     12 C          11.3823    0.3583    0.0000 C.3     1  UNL1        0.0059
     13 C           8.7461    1.8753    0.0000 C.3     1  UNL1       -0.0236
     14 C           8.7421    2.9169    0.0000 C.3     1  UNL1       -0.0329
     15 C           9.6503    0.3650    0.0000 C.3     1  UNL1        0.0595
     16 C          10.5144   -0.1384    0.0000 C.3     1  UNL1       -0.0180
     17 C          12.3274    0.0499    0.0000 C.3     1  UNL1       -0.0080
     18 C          10.5422    2.9030    0.0000 C.3     1  UNL1       -0.0470
     19 C          12.3336    1.6594    0.0000 C.3     1  UNL1       -0.0226
     20 C           9.6462    3.4342    0.0000 C.3     1  UNL1       -0.0493
     21 C          12.9141    0.8524    0.0000 C.3     1  UNL1       -0.0432
     22 C           7.8171    1.3148    0.0000 C.3     1  UNL1       -0.0447
     23 C           7.8088    3.4702    0.0000 C.3     1  UNL1       -0.0232
     24 C          11.3785   -0.6417    0.0000 C.3     1  UNL1       -0.0563
     25 C           8.7500    0.8753    0.0000 C.3     1  UNL1       -0.0590
     26 C           6.8712    1.8464    0.0000 C.3     1  UNL1       -0.0260
     27 C           6.8671    2.9314    0.0000 C.3     1  UNL1        0.0620
     28 C          12.6344   -0.9018    0.0000 C.2     1  UNL1       -0.0222
     29 C          13.5847   -1.2128    0.0000 C.3     1  UNL1        0.1147
     30 C          12.0448   -1.7096    0.0000 C.2     1  UNL1        0.0252
     31 C           5.1350    2.9314    0.0000 C.3     1  UNL1        0.1624
     32 C          12.6309   -2.5198    0.0000 C.2     1  UNL1        0.3323
     33 C           5.1350    1.9314    0.0000 C.3     1  UNL1        0.0272
     34 C           4.2690    1.4314    0.0000 C.3     1  UNL1        0.0911
     35 C           3.4030    2.9314    0.0000 C.3     1  UNL1        0.0871
     36 C           3.4030    1.9314    0.0000 C.3     1  UNL1        0.1073
     37 C           2.5369    3.4314    0.0000 C.3     1  UNL1       -0.0361
     38 C           3.4030   -0.0686    0.0000 C.3     1  UNL1        0.0369
     39 H          11.2631    2.2781    0.0000 H       1  UNL1        0.0332
     40 H          10.3886    0.9371    0.0000 H       1  UNL1        0.0335
     41 H           8.7486    3.7669    0.0000 H       1  UNL1        0.0307
     42 H           9.1145    0.6770    0.0000 H       1  UNL1        0.0596
     43 H          10.1140   -0.6118    0.0000 H       1  UNL1        0.0296
     44 H          10.9111   -0.6149    0.0000 H       1  UNL1        0.0296
     45 H          12.9395   -0.0487    0.0000 H       1  UNL1        0.0353
     46 H          11.1509    2.7852    0.0000 H       1  UNL1        0.0269
     47 H          10.7624    3.4826    0.0000 H       1  UNL1        0.0269
     48 H          12.8721    1.9665    0.0000 H       1  UNL1        0.0293
     49 H          12.0847    2.2272    0.0000 H       1  UNL1        0.0293
     50 H          10.0489    3.9056    0.0000 H       1  UNL1        0.0268
     51 H           9.2507    3.9118    0.0000 H       1  UNL1        0.0268
     52 H          13.3733    0.4359    0.0000 H       1  UNL1        0.0272
     53 H          13.3765    1.2653    0.0000 H       1  UNL1        0.0272
     54 H           7.4253    0.8343    0.0000 H       1  UNL1        0.0271
     55 H           8.2235    0.8466    0.0000 H       1  UNL1        0.0271
     56 H           8.2116    3.9416    0.0000 H       1  UNL1        0.0293
     57 H           7.4133    3.9477    0.0000 H       1  UNL1        0.0293
     58 H          10.7585   -0.6393    0.0000 H       1  UNL1        0.0236
     59 H          11.3761   -1.2617    0.0000 H       1  UNL1        0.0236
     60 H          11.9985   -0.6441    0.0000 H       1  UNL1        0.0236
     61 H           8.1299    0.8729    0.0000 H       1  UNL1        0.0235
     62 H           8.7523    0.2553    0.0000 H       1  UNL1        0.0235
     63 H           9.3699    0.8777    0.0000 H       1  UNL1        0.0235
     64 H           6.2600    1.9501    0.0000 H       1  UNL1        0.0290
     65 H           6.6644    1.2619    0.0000 H       1  UNL1        0.0290
     66 H           6.8683    3.5514    0.0000 H       1  UNL1        0.0597
     67 H          11.9282    2.6662    0.0000 H       1  UNL1        0.2102
     68 H           8.7799   -0.7517    0.0000 H       1  UNL1        0.2098
     69 H          14.2012   -1.2790    0.0000 H       1  UNL1        0.0746
     70 H          13.7149   -0.6067    0.0000 H       1  UNL1        0.0746
     71 H          11.4248   -1.7083    0.0000 H       1  UNL1        0.0689
     72 H           5.1350    3.5514    0.0000 H       1  UNL1        0.0910
     73 H           5.3471    1.3488    0.0000 H       1  UNL1        0.0340
     74 H           5.7456    2.0390    0.0000 H       1  UNL1        0.0340
     75 H           4.8059    1.1214    0.0000 H       1  UNL1        0.0624
     76 H           3.4030    3.5514    0.0000 H       1  UNL1        0.0621
     77 H           3.4030    1.3114    0.0000 H       1  UNL1        0.0645
     78 H           2.8469    3.9683    0.0000 H       1  UNL1        0.0255
     79 H           2.0000    3.7414    0.0000 H       1  UNL1        0.0255
     80 H           2.2269    2.8944    0.0000 H       1  UNL1        0.0255
     81 H           2.0000    1.7414    0.0000 H       1  UNL1        0.2100
     82 H           3.0930    0.4683    0.0000 H       1  UNL1        0.0524
     83 H           2.8660   -0.3786    0.0000 H       1  UNL1        0.0524
     84 H           3.7130   -0.6056    0.0000 H       1  UNL1        0.0524
@<TRIPOS>BOND
     1     9     1    1
     2     1    67    1
     3    15     2    1
     4     2    68    1
     5    27     3    1
     6    31     3    1
     7     4    29    1
     8     4    32    1
     9     5    31    1
    10     5    35    1
    11     6    32    2
    12    34     7    1
    13     7    38    1
    14    36     8    1
    15     8    81    1
    16     9    10    1
    17     9    12    1
    18     9    19    1
    19    10    11    1
    20    10    18    1
    21    10    39    1
    22    11    13    1
    23    11    15    1
    24    11    40    1
    25    12    16    1
    26    12    17    1
    27    12    24    1
    28    13    14    1
    29    13    22    1
    30    13    25    1
    31    14    20    1
    32    14    23    1
    33    14    41    1
    34    15    16    1
    35    15    42    1
    36    16    43    1
    37    16    44    1
    38    17    21    1
    39    17    28    1
    40    17    45    1
    41    18    20    1
    42    18    46    1
    43    18    47    1
    44    19    21    1
    45    19    48    1
    46    19    49    1
    47    20    50    1
    48    20    51    1
    49    21    52    1
    50    21    53    1
    51    22    26    1
    52    22    54    1
    53    22    55    1
    54    23    27    1
    55    23    56    1
    56    23    57    1
    57    24    58    1
    58    24    59    1
    59    24    60    1
    60    25    61    1
    61    25    62    1
    62    25    63    1
    63    26    27    1
    64    26    64    1
    65    26    65    1
    66    27    66    1
    67    28    29    1
    68    28    30    2
    69    29    69    1
    70    29    70    1
    71    30    32    1
    72    30    71    1
    73    31    33    1
    74    31    72    1
    75    33    34    1
    76    33    73    1
    77    33    74    1
    78    34    36    1
    79    34    75    1
    80    35    36    1
    81    35    37    1
    82    35    76    1
    83    36    77    1
    84    37    78    1
    85    37    79    1
    86    37    80    1
    87    38    82    1
    88    38    83    1
    89    38    84    1
