@<TRIPOS>MOLECULE
IMPHY004508
 33 33 0 0 0
SMALL
GASTEIGER

@<TRIPOS>ATOM
      1 O           3.7690    1.7015    0.0000 O.3     1  UNL1       -0.3882
      2 O           3.7690   -2.0306    0.0000 O.3     1  UNL1       -0.3863
      3 O           2.5369   -1.1645    0.0000 O.3     1  UNL1       -0.3889
      4 C           4.2690    0.8355    0.0000 C.3     1  UNL1        0.0709
      5 C           4.2690   -1.1645    0.0000 C.3     1  UNL1        0.0892
      6 C           3.4030    0.3355    0.0000 C.3     1  UNL1        0.0050
      7 C           5.1350    0.3355    0.0000 C.3     1  UNL1       -0.0210
      8 C           3.4030   -0.6645    0.0000 C.3     1  UNL1        0.0862
      9 C           5.1350   -0.6645    0.0000 C.3     1  UNL1       -0.0192
     10 C           4.7690    1.7015    0.0000 C.3     1  UNL1       -0.0177
     11 C           4.7690   -2.0306    0.0000 C.3     1  UNL1       -0.0336
     12 C           5.7690    1.7015    0.0000 C.3     1  UNL1       -0.0601
     13 C           4.2690    2.5675    0.0000 C.3     1  UNL1       -0.0601
     14 H           3.1909    0.9181    0.0000 H       1  UNL1        0.0319
     15 H           2.7924    0.2278    0.0000 H       1  UNL1        0.0319
     16 H           5.7456    0.2278    0.0000 H       1  UNL1        0.0294
     17 H           5.3471    0.9181    0.0000 H       1  UNL1        0.0294
     18 H           3.4030   -1.2845    0.0000 H       1  UNL1        0.0623
     19 H           5.3471   -1.2472    0.0000 H       1  UNL1        0.0294
     20 H           5.7456   -0.5569    0.0000 H       1  UNL1        0.0294
     21 H           5.0790    2.2384    0.0000 H       1  UNL1        0.0323
     22 H           4.2320   -2.3406    0.0000 H       1  UNL1        0.0258
     23 H           5.0790   -2.5675    0.0000 H       1  UNL1        0.0258
     24 H           5.3059   -1.7206    0.0000 H       1  UNL1        0.0258
     25 H           5.7690    1.0815    0.0000 H       1  UNL1        0.0233
     26 H           6.3890    1.7015    0.0000 H       1  UNL1        0.0233
     27 H           5.7690    2.3215    0.0000 H       1  UNL1        0.0233
     28 H           4.8059    2.8775    0.0000 H       1  UNL1        0.0233
     29 H           3.9590    3.1044    0.0000 H       1  UNL1        0.0233
     30 H           3.7320    2.2575    0.0000 H       1  UNL1        0.0233
     31 H           3.1490    1.7015    0.0000 H       1  UNL1        0.2102
     32 H           4.0790   -2.5675    0.0000 H       1  UNL1        0.2103
     33 H           2.0000   -0.8545    0.0000 H       1  UNL1        0.2099
@<TRIPOS>BOND
     1     4     1    1
     2     1    31    1
     3     5     2    1
     4     2    32    1
     5     8     3    1
     6     3    33    1
     7     4     6    1
     8     4     7    1
     9     4    10    1
    10     5     8    1
    11     5     9    1
    12     5    11    1
    13     6     8    1
    14     6    14    1
    15     6    15    1
    16     7     9    1
    17     7    16    1
    18     7    17    1
    19     8    18    1
    20     9    19    1
    21     9    20    1
    22    10    12    1
    23    10    13    1
    24    10    21    1
    25    11    22    1
    26    11    23    1
    27    11    24    1
    28    12    25    1
    29    12    26    1
    30    12    27    1
    31    13    28    1
    32    13    29    1
    33    13    30    1
