@<TRIPOS>MOLECULE
IMPHY013134
 81 87 0 0 0
SMALL
GASTEIGER

@<TRIPOS>ATOM
      1 O           3.2608    1.9337    0.0000 O.3     1  UNL1       -0.3828
      2 O           3.1877    0.2974    0.0000 O.3     1  UNL1       -0.3852
      3 O           6.5279   -0.8448    0.0000 O.3     1  UNL1       -0.4530
      4 O           6.5279    2.8904    0.0000 O.3     1  UNL1       -0.3791
      5 O           2.8115    2.6388    0.0000 O.3     1  UNL1       -0.3765
      6 O           2.4102    3.3483    0.0000 O.3     1  UNL1       -0.3793
      7 O           8.2599   -0.8448    0.0000 O.2     1  UNL1       -0.2449
      8 N           7.7232    1.0613    0.0000 N.3     1  UNL1       -0.2949
      9 N           9.1260   -2.3448    0.0000 N.pl3   1  UNL1       -0.3573
     10 C           5.7766    1.4566    0.0000 C.3     1  UNL1        0.0249
     11 C           5.0982    1.9975    0.0000 C.3     1  UNL1        0.0033
     12 C           6.7785    1.3505    0.0000 C.3     1  UNL1        0.0248
     13 C           5.7766    0.5890    0.0000 C.3     1  UNL1        0.0104
     14 C           4.2524    0.2411    0.0000 C.3     1  UNL1        0.0074
     15 C           4.2524    1.8044    0.0000 C.3     1  UNL1        0.1246
     16 C           3.8760    1.0228    0.0000 C.3     1  UNL1        0.1039
     17 C           5.0982    0.0481    0.0000 C.3     1  UNL1       -0.0389
     18 C           6.5279    0.1552    0.0000 C.3     1  UNL1        0.1299
     19 C           6.5279    1.8904    0.0000 C.3     1  UNL1        0.0662
     20 C           5.1760    2.8616    0.0000 C.3     1  UNL1       -0.0391
     21 C           4.3783    3.2026    0.0000 C.3     1  UNL1        0.0148
     22 C           3.8074    2.5492    0.0000 C.3     1  UNL1        0.0951
     23 C           3.2311    1.2927    0.0000 C.3     1  UNL1        0.0058
     24 C           7.7232    0.3094    0.0000 C.3     1  UNL1        0.0395
     25 C           3.2311    2.7772    0.0000 C.3     1  UNL1        0.0663
     26 C           7.2792    0.5890    0.0000 C.3     1  UNL1       -0.0089
     27 C           7.2792    1.4566    0.0000 C.3     1  UNL1       -0.0224
     28 C           8.5272    1.6560    0.0000 C.3     1  UNL1       -0.0035
     29 C           9.4442    1.2571    0.0000 C.3     1  UNL1       -0.0523
     30 C           7.3939    3.3904    0.0000 C.3     1  UNL1        0.0368
     31 C           1.9041    2.2185    0.0000 C.3     1  UNL1        0.0369
     32 C           7.3939   -1.3448    0.0000 C.2     1  UNL1        0.3415
     33 C           2.4944    4.3448    0.0000 C.3     1  UNL1        0.0368
     34 C           7.3939   -2.3448    0.0000 C.ar    1  UNL1        0.0796
     35 C           8.2599   -2.8448    0.0000 C.ar    1  UNL1        0.0387
     36 C           6.5279   -2.8448    0.0000 C.ar    1  UNL1       -0.0460
     37 C           8.2599   -3.8448    0.0000 C.ar    1  UNL1       -0.0402
     38 C           6.5279   -3.8448    0.0000 C.ar    1  UNL1       -0.0609
     39 C           7.3939   -4.3448    0.0000 C.ar    1  UNL1       -0.0600
     40 H           5.8798    2.3316    0.0000 H       1  UNL1        0.0337
     41 H           6.9024    1.9580    0.0000 H       1  UNL1        0.0473
     42 H           5.8401   -0.2586    0.0000 H       1  UNL1        0.0347
     43 H           3.7224   -0.4234    0.0000 H       1  UNL1        0.0345
     44 H           5.5830   -0.3385    0.0000 H       1  UNL1        0.0273
     45 H           4.8292   -0.5105    0.0000 H       1  UNL1        0.0273
     46 H           5.9910    2.2004    0.0000 H       1  UNL1        0.0602
     47 H           5.3588    3.4540    0.0000 H       1  UNL1        0.0273
     48 H           5.7843    2.7418    0.0000 H       1  UNL1        0.0273
     49 H           4.3990    4.0523    0.0000 H       1  UNL1        0.0352
     50 H           3.5766    3.1246    0.0000 H       1  UNL1        0.0629
     51 H           3.0692    0.6942    0.0000 H       1  UNL1        0.0319
     52 H           2.6165    1.3744    0.0000 H       1  UNL1        0.0319
     53 H           8.3427    0.3360    0.0000 H       1  UNL1        0.0466
     54 H           7.7762   -0.3083    0.0000 H       1  UNL1        0.0466
     55 H           3.3093    3.3923    0.0000 H       1  UNL1        0.0600
     56 H           7.8898    0.6967    0.0000 H       1  UNL1        0.0305
     57 H           7.4913    0.0064    0.0000 H       1  UNL1        0.0305
     58 H           7.4913    2.0392    0.0000 H       1  UNL1        0.0292
     59 H           7.8898    1.3489    0.0000 H       1  UNL1        0.0292
     60 H           2.6883    1.6958    0.0000 H       1  UNL1        0.2104
     61 H           2.5848    0.4421    0.0000 H       1  UNL1        0.2103
     62 H           8.0775    2.0829    0.0000 H       1  UNL1        0.0424
     63 H           8.8695    2.1730    0.0000 H       1  UNL1        0.0424
     64 H           9.6915    1.8256    0.0000 H       1  UNL1        0.0242
     65 H          10.0127    1.0098    0.0000 H       1  UNL1        0.0242
     66 H           9.1968    0.6886    0.0000 H       1  UNL1        0.0242
     67 H           7.0839    3.9273    0.0000 H       1  UNL1        0.0524
     68 H           7.9309    3.7004    0.0000 H       1  UNL1        0.0524
     69 H           7.7039    2.8534    0.0000 H       1  UNL1        0.0524
     70 H           2.1647    1.6559    0.0000 H       1  UNL1        0.0524
     71 H           1.3415    1.9579    0.0000 H       1  UNL1        0.0524
     72 H           1.6435    2.7811    0.0000 H       1  UNL1        0.0524
     73 H           1.8766    4.3970    0.0000 H       1  UNL1        0.0524
     74 H           2.5466    4.9626    0.0000 H       1  UNL1        0.0524
     75 H           3.1122    4.2926    0.0000 H       1  UNL1        0.0524
     76 H           5.9910   -2.5348    0.0000 H       1  UNL1        0.0626
     77 H           8.7969   -4.1548    0.0000 H       1  UNL1        0.0636
     78 H           5.9910   -4.1548    0.0000 H       1  UNL1        0.0618
     79 H           9.6629   -2.6548    0.0000 H       1  UNL1        0.1423
     80 H           9.1260   -1.7248    0.0000 H       1  UNL1        0.1423
     81 H           7.3939   -4.9648    0.0000 H       1  UNL1        0.0618
@<TRIPOS>BOND
     1    15     1    1
     2     1    60    1
     3    16     2    1
     4     2    61    1
     5    18     3    1
     6     3    32    1
     7    19     4    1
     8     4    30    1
     9    22     5    1
    10     5    31    1
    11    25     6    1
    12     6    33    1
    13     7    32    2
    14     8    12    1
    15     8    24    1
    16     8    28    1
    17     9    35    1
    18     9    79    1
    19     9    80    1
    20    10    11    1
    21    10    12    1
    22    10    13    1
    23    10    19    1
    24    11    15    1
    25    11    20    1
    26    11    40    1
    27    12    14    1
    28    12    41    1
    29    13    17    1
    30    13    18    1
    31    13    42    1
    32    14    16    1
    33    14    17    1
    34    14    43    1
    35    15    16    1
    36    15    22    1
    37    16    23    1
    38    17    44    1
    39    17    45    1
    40    18    24    1
    41    18    26    1
    42    19    27    1
    43    19    46    1
    44    20    21    1
    45    20    47    1
    46    20    48    1
    47    21    22    1
    48    21    25    1
    49    21    49    1
    50    22    50    1
    51    23    25    1
    52    23    51    1
    53    23    52    1
    54    24    53    1
    55    24    54    1
    56    25    55    1
    57    26    27    1
    58    26    56    1
    59    26    57    1
    60    27    58    1
    61    27    59    1
    62    28    29    1
    63    28    62    1
    64    28    63    1
    65    29    64    1
    66    29    65    1
    67    29    66    1
    68    30    67    1
    69    30    68    1
    70    30    69    1
    71    31    70    1
    72    31    71    1
    73    31    72    1
    74    32    34    1
    75    33    73    1
    76    33    74    1
    77    33    75    1
    78    34    35   ar
    79    34    36   ar
    80    35    37   ar
    81    36    38   ar
    82    36    76    1
    83    37    39   ar
    84    37    77    1
    85    38    39   ar
    86    38    78    1
    87    39    81    1
