@<TRIPOS>MOLECULE
IMPHY004656
 28 30 0 0 0
SMALL
GASTEIGER

@<TRIPOS>ATOM
      1 O           6.3981   -1.3047    0.0000 O.2     1  UNL1       -0.4515
      2 O           2.8680   -1.3289    0.0000 O.3     1  UNL1       -0.4950
      3 O           9.9282   -1.3289    0.0000 O.2     1  UNL1       -0.2858
      4 N           6.3981    0.6953    0.0000 N.ar    1  UNL1       -0.2404
      5 N           9.9282    0.7194    0.0000 N.pl3   1  UNL1       -0.3550
      6 C           7.2641    0.1953    0.0000 C.ar    1  UNL1        0.1087
      7 C           5.5320   -0.8047    0.0000 C.ar    1  UNL1        0.1572
      8 C           7.2641   -0.8047    0.0000 C.ar    1  UNL1        0.1575
      9 C           5.5320    0.1953    0.0000 C.ar    1  UNL1        0.1070
     10 C           8.1580    0.7299    0.0000 C.ar    1  UNL1       -0.0083
     11 C           4.6381   -1.3394    0.0000 C.ar    1  UNL1        0.0245
     12 C           8.1580   -1.3394    0.0000 C.ar    1  UNL1        0.0314
     13 C           4.6381    0.7299    0.0000 C.ar    1  UNL1       -0.0292
     14 C           9.0641    0.2161    0.0000 C.ar    1  UNL1        0.0741
     15 C           3.7320   -0.8256    0.0000 C.ar    1  UNL1        0.1237
     16 C           9.0641   -0.8256    0.0000 C.ar    1  UNL1        0.2030
     17 C           3.7320    0.2161    0.0000 C.ar    1  UNL1       -0.0177
     18 C           2.0000   -0.8322    0.0000 C.3     1  UNL1        0.0788
     19 H           8.1509    1.3499    0.0000 H       1  UNL1        0.0660
     20 H           4.6453   -1.9594    0.0000 H       1  UNL1        0.0692
     21 H           8.1509   -1.9594    0.0000 H       1  UNL1        0.0694
     22 H           4.6453    1.3499    0.0000 H       1  UNL1        0.0641
     23 H           3.1963    0.5281    0.0000 H       1  UNL1        0.0655
     24 H           9.9258    1.3394    0.0000 H       1  UNL1        0.1424
     25 H          10.4663    0.4115    0.0000 H       1  UNL1        0.1424
     26 H           2.3079   -0.2941    0.0000 H       1  UNL1        0.0660
     27 H           1.4619   -0.5243    0.0000 H       1  UNL1        0.0660
     28 H           1.6921   -1.3704    0.0000 H       1  UNL1        0.0660
@<TRIPOS>BOND
     1     1     7   ar
     2     1     8   ar
     3     2    15    1
     4     2    18    1
     5     3    16    2
     6     4     6   ar
     7     4     9   ar
     8     5    14    1
     9     5    24    1
    10     5    25    1
    11     6     8    1
    12     6    10   ar
    13     7     9   ar
    14     7    11   ar
    15     8    12   ar
    16     9    13   ar
    17    10    14   ar
    18    10    19    1
    19    11    15   ar
    20    11    20    1
    21    12    16   ar
    22    12    21    1
    23    13    17   ar
    24    13    22    1
    25    14    16   ar
    26    15    17   ar
    27    17    23    1
    28    18    26    1
    29    18    27    1
    30    18    28    1
