@<TRIPOS>MOLECULE
IMPHY015334
 19 19 0 0 0
SMALL
GASTEIGER

@<TRIPOS>ATOM
      1 O           5.5202   -1.0419    0.0000 O.2     1  UNL1       -0.2701
      2 O           2.0000   -1.0419    0.0000 O.2     1  UNL1       -0.2701
      3 N           3.7601   -1.3207    0.0000 N.am    1  UNL1       -0.2488
      4 C           4.2601    0.2181    0.0000 C.2     1  UNL1        0.0223
      5 C           3.2601    0.2181    0.0000 C.2     1  UNL1        0.0197
      6 C           4.8479    1.0272    0.0000 C.3     1  UNL1       -0.0252
      7 C           4.5691   -0.7329    0.0000 C.2     1  UNL1        0.2469
      8 C           2.9511   -0.7329    0.0000 C.2     1  UNL1        0.2466
      9 C           2.6723    1.0272    0.0000 C.3     1  UNL1       -0.0344
     10 C           4.4411    1.9407    0.0000 C.3     1  UNL1       -0.0611
     11 H           5.2786    0.5812    0.0000 H       1  UNL1        0.0312
     12 H           5.3619    1.3739    0.0000 H       1  UNL1        0.0312
     13 H           3.7601   -1.9407    0.0000 H       1  UNL1        0.1581
     14 H           3.1739    1.3916    0.0000 H       1  UNL1        0.0279
     15 H           2.3079    1.5288    0.0000 H       1  UNL1        0.0279
     16 H           2.1707    0.6627    0.0000 H       1  UNL1        0.0279
     17 H           5.0075    2.1929    0.0000 H       1  UNL1        0.0233
     18 H           4.1890    2.5071    0.0000 H       1  UNL1        0.0233
     19 H           3.8747    1.6885    0.0000 H       1  UNL1        0.0233
@<TRIPOS>BOND
     1     1     7    2
     2     2     8    2
     3     3     7   am
     4     3     8   am
     5     3    13    1
     6     4     5    2
     7     4     6    1
     8     4     7    1
     9     5     8    1
    10     5     9    1
    11     6    10    1
    12     6    11    1
    13     6    12    1
    14     9    14    1
    15     9    15    1
    16     9    16    1
    17    10    17    1
    18    10    18    1
    19    10    19    1
