@<TRIPOS>MOLECULE
IMPHY017239
 28 29 0 0 0
SMALL
GASTEIGER

@<TRIPOS>ATOM
      1 O           3.7320    0.7306    0.0000 O.3     1  UNL1       -0.4587
      2 O           3.7891    2.8184    0.0000 O.2     1  UNL1       -0.4564
      3 O           5.4641    0.7306    0.0000 O.2     1  UNL1       -0.2415
      4 C           2.8660   -0.7694    0.0000 C.3     1  UNL1        0.0068
      5 C           2.8660   -1.7694    0.0000 C.ar    1  UNL1       -0.0442
      6 C           3.7320   -0.2694    0.0000 C.3     1  UNL1        0.0968
      7 C           2.0000   -2.2694    0.0000 C.ar    1  UNL1       -0.0585
      8 C           3.7320   -2.2694    0.0000 C.ar    1  UNL1       -0.0585
      9 C           2.0000   -3.2694    0.0000 C.ar    1  UNL1       -0.0615
     10 C           3.7320   -3.2694    0.0000 C.ar    1  UNL1       -0.0615
     11 C           2.8660   -3.7694    0.0000 C.ar    1  UNL1       -0.0617
     12 C           4.5981    1.2306    0.0000 C.2     1  UNL1        0.3748
     13 C           4.5981    2.2306    0.0000 C.ar    1  UNL1        0.2112
     14 C           5.4071    2.8184    0.0000 C.ar    1  UNL1       -0.0093
     15 C           5.0981    3.7694    0.0000 C.ar    1  UNL1       -0.0231
     16 C           4.0981    3.7694    0.0000 C.ar    1  UNL1        0.0929
     17 H           2.6540   -0.1868    0.0000 H       1  UNL1        0.0346
     18 H           2.2554   -0.8771    0.0000 H       1  UNL1        0.0346
     19 H           3.9441   -0.8520    0.0000 H       1  UNL1        0.0701
     20 H           4.3426   -0.1618    0.0000 H       1  UNL1        0.0701
     21 H           1.4631   -1.9594    0.0000 H       1  UNL1        0.0620
     22 H           4.2690   -1.9594    0.0000 H       1  UNL1        0.0620
     23 H           1.4631   -3.5794    0.0000 H       1  UNL1        0.0618
     24 H           4.2690   -3.5794    0.0000 H       1  UNL1        0.0618
     25 H           2.8660   -4.3894    0.0000 H       1  UNL1        0.0618
     26 H           5.9967    2.6268    0.0000 H       1  UNL1        0.0657
     27 H           5.4625    4.2710    0.0000 H       1  UNL1        0.0649
     28 H           3.7336    4.2710    0.0000 H       1  UNL1        0.1029
@<TRIPOS>BOND
     1     1     6    1
     2     1    12    1
     3     2    13   ar
     4     2    16   ar
     5     3    12    2
     6     4     5    1
     7     4     6    1
     8     4    17    1
     9     4    18    1
    10     5     7   ar
    11     5     8   ar
    12     6    19    1
    13     6    20    1
    14     7     9   ar
    15     7    21    1
    16     8    10   ar
    17     8    22    1
    18     9    11   ar
    19     9    23    1
    20    10    11   ar
    21    10    24    1
    22    11    25    1
    23    12    13    1
    24    13    14   ar
    25    14    15   ar
    26    14    26    1
    27    15    16   ar
    28    15    27    1
    29    16    28    1
