@<TRIPOS>MOLECULE
IMPHY008744
 28 28 0 0 0
SMALL
GASTEIGER

@<TRIPOS>ATOM
      1 O           4.5981    2.2500    0.0000 O.3     1  UNL1       -0.4618
      2 O           2.8660    2.2500    0.0000 O.2     1  UNL1       -0.2456
      3 C           2.8660   -0.7500    0.0000 C.ar    1  UNL1       -0.0248
      4 C           2.8660   -2.7500    0.0000 C.ar    1  UNL1       -0.0504
      5 C           2.0000   -1.2500    0.0000 C.ar    1  UNL1       -0.0543
      6 C           3.7320   -1.2500    0.0000 C.ar    1  UNL1       -0.0543
      7 C           2.0000   -2.2500    0.0000 C.ar    1  UNL1       -0.0583
      8 C           3.7320   -2.2500    0.0000 C.ar    1  UNL1       -0.0583
      9 C           2.8660    0.2500    0.0000 C.2     1  UNL1       -0.0478
     10 C           2.8660   -3.7500    0.0000 C.3     1  UNL1       -0.0397
     11 C           3.7320    0.7500    0.0000 C.2     1  UNL1        0.0231
     12 C           4.5981    3.2500    0.0000 C.3     1  UNL1        0.0900
     13 C           3.7320    1.7500    0.0000 C.2     1  UNL1        0.3319
     14 C           5.4641    3.7500    0.0000 C.3     1  UNL1       -0.0306
     15 H           1.4631   -0.9400    0.0000 H       1  UNL1        0.0624
     16 H           4.2690   -0.9400    0.0000 H       1  UNL1        0.0624
     17 H           1.4631   -2.5600    0.0000 H       1  UNL1        0.0620
     18 H           4.2690   -2.5600    0.0000 H       1  UNL1        0.0620
     19 H           2.3291    0.5600    0.0000 H       1  UNL1        0.0626
     20 H           2.2460   -3.7500    0.0000 H       1  UNL1        0.0278
     21 H           2.8660   -4.3700    0.0000 H       1  UNL1        0.0278
     22 H           3.4860   -3.7500    0.0000 H       1  UNL1        0.0278
     23 H           4.2690    0.4400    0.0000 H       1  UNL1        0.0689
     24 H           4.3860    3.8326    0.0000 H       1  UNL1        0.0695
     25 H           3.9875    3.1423    0.0000 H       1  UNL1        0.0695
     26 H           5.7741    3.2131    0.0000 H       1  UNL1        0.0262
     27 H           6.0010    4.0600    0.0000 H       1  UNL1        0.0262
     28 H           5.1541    4.2869    0.0000 H       1  UNL1        0.0262
@<TRIPOS>BOND
     1     1    12    1
     2     1    13    1
     3     2    13    2
     4     3     5   ar
     5     3     6   ar
     6     3     9    1
     7     4     7   ar
     8     4     8   ar
     9     4    10    1
    10     5     7   ar
    11     5    15    1
    12     6     8   ar
    13     6    16    1
    14     7    17    1
    15     8    18    1
    16     9    11    2
    17     9    19    1
    18    10    20    1
    19    10    21    1
    20    10    22    1
    21    11    13    1
    22    11    23    1
    23    12    14    1
    24    12    24    1
    25    12    25    1
    26    14    26    1
    27    14    27    1
    28    14    28    1
