@<TRIPOS>MOLECULE
IMPHY000677
 41 44 0 0 0
SMALL
GASTEIGER

@<TRIPOS>ATOM
      1 O           6.0290   -1.1897    0.0000 O.2     1  UNL1       -0.4619
      2 O          11.3441    0.6875    0.0000 O.3     1  UNL1       -0.4526
      3 O          11.3503   -0.9219    0.0000 O.3     1  UNL1       -0.4526
      4 O           4.2690    1.8450    0.0000 O.3     1  UNL1       -0.5055
      5 O           2.5369   -1.1550    0.0000 O.3     1  UNL1       -0.5060
      6 O           6.0174    1.8796    0.0000 O.2     1  UNL1       -0.2866
      7 C           5.1350    0.3450    0.0000 C.ar    1  UNL1        0.1062
      8 C           7.7991    0.8692    0.0000 C.3     1  UNL1        0.0043
      9 C           6.9350    0.3658    0.0000 C.ar    1  UNL1        0.0391
     10 C           5.1350   -0.6550    0.0000 C.ar    1  UNL1        0.1483
     11 C           6.0290    0.8797    0.0000 C.ar    1  UNL1        0.1995
     12 C           4.2690   -1.1550    0.0000 C.ar    1  UNL1        0.0343
     13 C           8.6671    0.3725    0.0000 C.ar    1  UNL1       -0.0392
     14 C           4.2690    0.8450    0.0000 C.ar    1  UNL1        0.1376
     15 C           3.4030    0.3450    0.0000 C.ar    1  UNL1        0.0335
     16 C           3.4030   -0.6550    0.0000 C.ar    1  UNL1        0.1296
     17 C           6.9350   -0.6758    0.0000 C.ar    1  UNL1        0.0996
     18 C           9.5312    0.8758    0.0000 C.ar    1  UNL1       -0.0126
     19 C          10.3991    0.3792    0.0000 C.ar    1  UNL1        0.1665
     20 C           8.6709   -0.6275    0.0000 C.ar    1  UNL1       -0.0546
     21 C          10.4030   -0.6208    0.0000 C.ar    1  UNL1        0.1662
     22 C           4.2690   -2.1550    0.0000 C.3     1  UNL1       -0.0327
     23 C           9.5389   -1.1242    0.0000 C.ar    1  UNL1       -0.0159
     24 C           2.5369    0.8450    0.0000 C.3     1  UNL1       -0.0327
     25 C          11.9308   -0.1149    0.0000 C.3     1  UNL1        0.2332
     26 H           8.1958    1.3456    0.0000 H       1  UNL1        0.0364
     27 H           7.3988    1.3426    0.0000 H       1  UNL1        0.0364
     28 H           7.4708   -0.9879    0.0000 H       1  UNL1        0.1033
     29 H           9.5288    1.4958    0.0000 H       1  UNL1        0.0658
     30 H           8.1352   -0.9396    0.0000 H       1  UNL1        0.0622
     31 H           3.6490   -2.1550    0.0000 H       1  UNL1        0.0280
     32 H           4.2690   -2.7750    0.0000 H       1  UNL1        0.0280
     33 H           4.8890   -2.1550    0.0000 H       1  UNL1        0.0280
     34 H           9.5412   -1.7442    0.0000 H       1  UNL1        0.0655
     35 H           2.8469    1.3819    0.0000 H       1  UNL1        0.0280
     36 H           2.0000    1.1550    0.0000 H       1  UNL1        0.0280
     37 H           2.2269    0.3081    0.0000 H       1  UNL1        0.0280
     38 H          12.3933   -0.5279    0.0000 H       1  UNL1        0.1166
     39 H          12.3901    0.3016    0.0000 H       1  UNL1        0.1166
     40 H           3.7320    2.1550    0.0000 H       1  UNL1        0.2922
     41 H           2.0000   -0.8450    0.0000 H       1  UNL1        0.2922
@<TRIPOS>BOND
     1     1    10   ar
     2     1    17   ar
     3     2    19    1
     4     2    25    1
     5     3    21    1
     6     3    25    1
     7     4    14    1
     8     4    40    1
     9     5    16    1
    10     5    41    1
    11     6    11    2
    12     7    10   ar
    13     7    11   ar
    14     7    14   ar
    15     8     9    1
    16     8    13    1
    17     8    26    1
    18     8    27    1
    19     9    11   ar
    20     9    17   ar
    21    10    12   ar
    22    12    16   ar
    23    12    22    1
    24    13    18   ar
    25    13    20   ar
    26    14    15   ar
    27    15    16   ar
    28    15    24    1
    29    17    28    1
    30    18    19   ar
    31    18    29    1
    32    19    21   ar
    33    20    23   ar
    34    20    30    1
    35    21    23   ar
    36    22    31    1
    37    22    32    1
    38    22    33    1
    39    23    34    1
    40    24    35    1
    41    24    36    1
    42    24    37    1
    43    25    38    1
    44    25    39    1
