@<TRIPOS>MOLECULE
IMPHY004544
 38 40 0 0 0
SMALL
GASTEIGER

@<TRIPOS>ATOM
      1 O           6.3981   -1.0223    0.0000 O.3     1  UNL1       -0.4828
      2 O           4.6497    2.0123    0.0000 O.3     1  UNL1       -0.4942
      3 O           6.3981    1.9777    0.0000 O.2     1  UNL1       -0.2917
      4 O           2.8680   -1.0464    0.0000 O.3     1  UNL1       -0.4949
      5 O          10.7282   -2.5223    0.0000 O.3     1  UNL1       -0.5068
      6 C           7.2641   -0.5223    0.0000 C.3     1  UNL1        0.1322
      7 C           7.2641    0.4777    0.0000 C.3     1  UNL1        0.0520
      8 C           5.5320    0.4777    0.0000 C.ar    1  UNL1        0.1009
      9 C           6.3981    0.9777    0.0000 C.2     1  UNL1        0.1740
     10 C           8.1301   -1.0223    0.0000 C.ar    1  UNL1       -0.0067
     11 C           5.5320   -0.5223    0.0000 C.ar    1  UNL1        0.1389
     12 C           4.6381    1.0124    0.0000 C.ar    1  UNL1        0.1375
     13 C           4.6381   -1.0570    0.0000 C.ar    1  UNL1        0.0227
     14 C           8.1301   -2.0223    0.0000 C.ar    1  UNL1       -0.0516
     15 C           8.9962   -0.5223    0.0000 C.ar    1  UNL1       -0.0516
     16 C           3.7320   -0.5431    0.0000 C.ar    1  UNL1        0.1271
     17 C           3.7320    0.4985    0.0000 C.ar    1  UNL1        0.0227
     18 C           8.9962   -2.5223    0.0000 C.ar    1  UNL1       -0.0198
     19 C           9.8622   -1.0223    0.0000 C.ar    1  UNL1       -0.0198
     20 C           9.8622   -2.0223    0.0000 C.ar    1  UNL1        0.1169
     21 C           3.7895    2.5223    0.0000 C.3     1  UNL1        0.0788
     22 C           2.0000   -0.5498    0.0000 C.3     1  UNL1        0.0788
     23 H           7.8010   -0.2123    0.0000 H       1  UNL1        0.0789
     24 H           7.8747    0.3701    0.0000 H       1  UNL1        0.0385
     25 H           7.4762    1.0603    0.0000 H       1  UNL1        0.0385
     26 H           4.6453   -1.6769    0.0000 H       1  UNL1        0.0691
     27 H           7.5932   -2.3323    0.0000 H       1  UNL1        0.0623
     28 H           8.9962    0.0977    0.0000 H       1  UNL1        0.0623
     29 H           3.1963    0.8106    0.0000 H       1  UNL1        0.0691
     30 H           8.9962   -3.1423    0.0000 H       1  UNL1        0.0654
     31 H          10.3991   -0.7123    0.0000 H       1  UNL1        0.0654
     32 H           4.1057    3.0556    0.0000 H       1  UNL1        0.0660
     33 H           3.2562    2.8385    0.0000 H       1  UNL1        0.0660
     34 H           3.4733    1.9890    0.0000 H       1  UNL1        0.0660
     35 H           2.3079   -0.0117    0.0000 H       1  UNL1        0.0660
     36 H           1.4619   -0.2419    0.0000 H       1  UNL1        0.0660
     37 H           1.6921   -1.0879    0.0000 H       1  UNL1        0.0660
     38 H          11.2651   -2.2123    0.0000 H       1  UNL1        0.2921
@<TRIPOS>BOND
     1     1     6    1
     2     1    11    1
     3     2    12    1
     4     2    21    1
     5     3     9    2
     6     4    16    1
     7     4    22    1
     8     5    20    1
     9     5    38    1
    10     6     7    1
    11     6    10    1
    12     6    23    1
    13     7     9    1
    14     7    24    1
    15     7    25    1
    16     8     9    1
    17     8    11   ar
    18     8    12   ar
    19    10    14   ar
    20    10    15   ar
    21    11    13   ar
    22    12    17   ar
    23    13    16   ar
    24    13    26    1
    25    14    18   ar
    26    14    27    1
    27    15    19   ar
    28    15    28    1
    29    16    17   ar
    30    17    29    1
    31    18    20   ar
    32    18    30    1
    33    19    20   ar
    34    19    31    1
    35    21    32    1
    36    21    33    1
    37    21    34    1
    38    22    35    1
    39    22    36    1
    40    22    37    1
