@<TRIPOS>MOLECULE
IMPHY001185
 60 64 0 0 0
SMALL
GASTEIGER

@<TRIPOS>ATOM
      1 O           7.3380    0.9405    0.0000 O.3     1  UNL1       -0.3585
      2 O           7.9657   -1.9063    0.0000 O.3     1  UNL1       -0.4578
      3 O           5.3194    1.6441    0.0000 O.3     1  UNL1       -0.3888
      4 O           7.0514    2.6441    0.0000 O.3     1  UNL1       -0.3858
      5 O           9.6792    0.1796    0.0000 O.3     1  UNL1       -0.4496
      6 O           9.4174    2.0101    0.0000 O.3     1  UNL1       -0.4659
      7 O           7.9174    2.8761    0.0000 O.2     1  UNL1       -0.2475
      8 O           9.7272   -1.8589    0.0000 O.2     1  UNL1       -0.2466
      9 O           2.5405    0.1834    0.0000 O.2     1  UNL1       -0.5034
     10 O           2.5244   -1.9082    0.0000 O.2     1  UNL1       -0.2838
     11 O          10.5860   -1.2961    0.0000 O.2     1  UNL1       -0.2511
     12 C           7.0514   -0.3559    0.0000 C.3     1  UNL1        0.0477
     13 C           6.1854    0.1441    0.0000 C.3     1  UNL1        0.0118
     14 C           7.9174    0.1441    0.0000 C.3     1  UNL1        0.0603
     15 C           7.9174    1.1441    0.0000 C.3     1  UNL1        0.2007
     16 C           7.0675   -1.3974    0.0000 C.3     1  UNL1        0.1154
     17 C           5.2754   -0.3628    0.0000 C.3     1  UNL1        0.0174
     18 C           6.1854    1.1441    0.0000 C.3     1  UNL1        0.0889
     19 C           6.9380    0.2477    0.0000 C.3     1  UNL1        0.0591
     20 C           7.0514    1.6441    0.0000 C.3     1  UNL1        0.1210
     21 C           8.8272   -0.3439    0.0000 C.3     1  UNL1        0.2056
     22 C           6.1694   -1.9252    0.0000 C.3     1  UNL1        0.0077
     23 C           5.2674   -1.4044    0.0000 C.2     1  UNL1       -0.0493
     24 C           8.4174    2.0101    0.0000 C.2     1  UNL1        0.3423
     25 C           4.9406    0.5795    0.0000 C.3     1  UNL1       -0.0518
     26 C           8.8515   -1.3760    0.0000 C.2     1  UNL1        0.3491
     27 C           4.3486    0.2013    0.0000 C.2     1  UNL1       -0.0284
     28 C           4.3319   -1.9541    0.0000 C.2     1  UNL1        0.0001
     29 C           3.4007   -0.3266    0.0000 C.2     1  UNL1        0.1606
     30 C           3.3923   -1.4116    0.0000 C.2     1  UNL1        0.2226
     31 C           4.3358   -2.9541    0.0000 C.3     1  UNL1       -0.0360
     32 C          10.5586   -0.2965    0.0000 C.2     1  UNL1        0.3047
     33 C           9.9174    2.8761    0.0000 C.3     1  UNL1        0.0818
     34 C          11.4106    0.2271    0.0000 C.3     1  UNL1        0.0333
     35 H           5.4493    0.5691    0.0000 H       1  UNL1        0.0345
     36 H           8.3424   -0.5920    0.0000 H       1  UNL1        0.0384
     37 H           7.0742   -2.2474    0.0000 H       1  UNL1        0.0743
     38 H           6.1854    1.7641    0.0000 H       1  UNL1        0.0623
     39 H           6.5109    0.6971    0.0000 H       1  UNL1        0.0567
     40 H           6.3861   -0.0347    0.0000 H       1  UNL1        0.0567
     41 H           7.5884    1.9541    0.0000 H       1  UNL1        0.0654
     42 H           9.3719   -0.6402    0.0000 H       1  UNL1        0.0857
     43 H           5.7721   -2.4012    0.0000 H       1  UNL1        0.0346
     44 H           6.5704   -2.3981    0.0000 H       1  UNL1        0.0346
     45 H           5.5248    0.7871    0.0000 H       1  UNL1        0.0241
     46 H           4.7331    1.1638    0.0000 H       1  UNL1        0.0241
     47 H           4.3564    0.3720    0.0000 H       1  UNL1        0.0241
     48 H           4.3605    0.8212    0.0000 H       1  UNL1        0.0618
     49 H           5.3194    2.2641    0.0000 H       1  UNL1        0.2099
     50 H           6.5145    2.9541    0.0000 H       1  UNL1        0.2100
     51 H           3.7158   -2.9565    0.0000 H       1  UNL1        0.0279
     52 H           4.3382   -3.5741    0.0000 H       1  UNL1        0.0279
     53 H           4.9558   -2.9517    0.0000 H       1  UNL1        0.0279
     54 H           2.0000   -0.1204    0.0000 H       1  UNL1        0.2923
     55 H          10.4544    2.5661    0.0000 H       1  UNL1        0.0661
     56 H          10.2274    3.4131    0.0000 H       1  UNL1        0.0661
     57 H           9.3805    3.1861    0.0000 H       1  UNL1        0.0661
     58 H          11.7352   -0.3012    0.0000 H       1  UNL1        0.0342
     59 H          11.9389    0.5517    0.0000 H       1  UNL1        0.0342
     60 H          11.0860    0.7553    0.0000 H       1  UNL1        0.0342
@<TRIPOS>BOND
     1     1    15    1
     2     1    19    1
     3     2    16    1
     4     2    26    1
     5    18     3    1
     6     3    49    1
     7    20     4    1
     8     4    50    1
     9    21     5    1
    10     5    32    1
    11     6    24    1
    12     6    33    1
    13     7    24    2
    14     8    26    2
    15     9    29    1
    16     9    54    1
    17    10    30    2
    18    11    32    2
    19    12    13    1
    20    12    14    1
    21    12    16    1
    22    12    19    1
    23    13    17    1
    24    13    18    1
    25    13    35    1
    26    14    15    1
    27    14    21    1
    28    14    36    1
    29    15    20    1
    30    15    24    1
    31    16    22    1
    32    16    37    1
    33    17    23    1
    34    17    25    1
    35    17    27    1
    36    18    20    1
    37    18    38    1
    38    19    39    1
    39    19    40    1
    40    20    41    1
    41    21    26    1
    42    21    42    1
    43    22    23    1
    44    22    43    1
    45    22    44    1
    46    23    28    2
    47    25    45    1
    48    25    46    1
    49    25    47    1
    50    27    29    2
    51    27    48    1
    52    28    30    1
    53    28    31    1
    54    29    30    1
    55    31    51    1
    56    31    52    1
    57    31    53    1
    58    32    34    1
    59    33    55    1
    60    33    56    1
    61    33    57    1
    62    34    58    1
    63    34    59    1
    64    34    60    1
