@<TRIPOS>MOLECULE
IMPHY007489
 38 42 0 0 0
SMALL
GASTEIGER

@<TRIPOS>ATOM
      1 O           6.7471   -1.2114    0.0000 O.2     1  UNL1       -0.4501
      2 O           5.2243    1.7604    0.0000 O.3     1  UNL1       -0.4907
      3 O           6.9563    2.7604    0.0000 O.3     1  UNL1       -0.5029
      4 O           3.9282    0.6344    0.0000 O.2     1  UNL1       -0.2865
      5 O           5.5816   -3.0704    0.0000 O.2     1  UNL1       -0.2833
      6 C           6.0903    0.2604    0.0000 C.ar    1  UNL1        0.0776
      7 C           5.3533   -0.4067    0.0000 C.ar    1  UNL1        0.0826
      8 C           6.9563   -0.2396    0.0000 C.ar    1  UNL1        0.1480
      9 C           5.7584   -1.3145    0.0000 C.ar    1  UNL1        0.1871
     10 C           7.8224    0.2604    0.0000 C.ar    1  UNL1        0.0287
     11 C           6.0903    1.2604    0.0000 C.ar    1  UNL1        0.1733
     12 C           7.8224    1.2604    0.0000 C.ar    1  UNL1        0.0308
     13 C           4.3252   -0.2835    0.0000 C.2     1  UNL1        0.1983
     14 C           3.7108   -1.1170    0.0000 C.ar    1  UNL1        0.0333
     15 C           6.9563    1.7604    0.0000 C.ar    1  UNL1        0.1672
     16 C           4.1328   -2.0626    0.0000 C.ar    1  UNL1        0.0362
     17 C           5.1635   -2.1620    0.0000 C.2     1  UNL1        0.2293
     18 C           8.7163   -0.2743    0.0000 C.ar    1  UNL1       -0.0504
     19 C           8.7163    1.7951    0.0000 C.ar    1  UNL1       -0.0503
     20 C           2.6399   -0.9887    0.0000 C.ar    1  UNL1       -0.0502
     21 C           3.5131   -2.9454    0.0000 C.ar    1  UNL1       -0.0501
     22 C           9.6224    0.2396    0.0000 C.ar    1  UNL1       -0.0610
     23 C           9.6224    1.2812    0.0000 C.ar    1  UNL1       -0.0610
     24 C           2.0000   -1.8569    0.0000 C.ar    1  UNL1       -0.0610
     25 C           2.4396   -2.8418    0.0000 C.ar    1  UNL1       -0.0610
     26 C           5.2243    2.7604    0.0000 C.3     1  UNL1        0.0790
     27 H           8.7091   -0.8942    0.0000 H       1  UNL1        0.0625
     28 H           8.7091    2.4150    0.0000 H       1  UNL1        0.0625
     29 H           2.3938   -0.4196    0.0000 H       1  UNL1        0.0625
     30 H           3.7723   -3.5086    0.0000 H       1  UNL1        0.0625
     31 H          10.1581   -0.0725    0.0000 H       1  UNL1        0.0618
     32 H          10.1581    1.5933    0.0000 H       1  UNL1        0.0618
     33 H           1.3836   -1.7902    0.0000 H       1  UNL1        0.0618
     34 H           2.0775   -3.3451    0.0000 H       1  UNL1        0.0618
     35 H           7.4933    3.0704    0.0000 H       1  UNL1        0.2923
     36 H           5.8443    2.7604    0.0000 H       1  UNL1        0.0660
     37 H           5.2243    3.3804    0.0000 H       1  UNL1        0.0660
     38 H           4.6043    2.7604    0.0000 H       1  UNL1        0.0660
@<TRIPOS>BOND
     1     1     8   ar
     2     1     9   ar
     3     2    11    1
     4     2    26    1
     5     3    15    1
     6     3    35    1
     7     4    13    2
     8     5    17    2
     9     6     7   ar
    10     6     8   ar
    11     6    11   ar
    12     7     9   ar
    13     7    13    1
    14     8    10   ar
    15     9    17    1
    16    10    12   ar
    17    10    18   ar
    18    11    15   ar
    19    12    15   ar
    20    12    19   ar
    21    13    14    1
    22    14    16   ar
    23    14    20   ar
    24    16    17    1
    25    16    21   ar
    26    18    22   ar
    27    18    27    1
    28    19    23   ar
    29    19    28    1
    30    20    24   ar
    31    20    29    1
    32    21    25   ar
    33    21    30    1
    34    22    23   ar
    35    22    31    1
    36    23    32    1
    37    24    25   ar
    38    24    33    1
    39    25    34    1
    40    26    36    1
    41    26    37    1
    42    26    38    1
