@<TRIPOS>MOLECULE
IMPHY011302
 99 106 0 0 0
SMALL
GASTEIGER

@<TRIPOS>ATOM
      1 O           6.1414    2.0316    0.0000 O.3     1  UNL1       -0.3378
      2 O           7.2066    4.2607    0.0000 O.3     1  UNL1       -0.3853
      3 O           9.8047    2.7607    0.0000 O.3     1  UNL1       -0.3852
      4 O           4.4753    0.5734    0.0000 O.3     1  UNL1       -0.3615
      5 O           9.8047    5.7607    0.0000 O.3     1  UNL1       -0.3827
      6 O           5.3308   -1.2272    0.0000 O.3     1  UNL1       -0.4524
      7 O           8.4387    6.1267    0.0000 O.3     1  UNL1       -0.3887
      8 O          11.1886    6.1671    0.0000 O.3     1  UNL1       -0.3843
      9 O           6.7369   -2.2387    0.0000 O.2     1  UNL1       -0.2449
     10 O           2.5840   -3.5628    0.0000 O.3     1  UNL1       -0.4914
     11 O           3.4060   -5.3860    0.0000 O.3     1  UNL1       -0.4915
     12 N          11.6047    3.7399    0.0000 N.3     1  UNL1       -0.2959
     13 C           7.7408    2.1858    0.0000 C.3     1  UNL1        0.0869
     14 C           7.1459    1.3383    0.0000 C.3     1  UNL1        0.0055
     15 C           7.3357    3.0936    0.0000 C.3     1  UNL1        0.0205
     16 C           8.0727    3.7607    0.0000 C.3     1  UNL1        0.1029
     17 C           8.9387    3.2607    0.0000 C.3     1  UNL1        0.1044
     18 C           6.1152    1.4377    0.0000 C.3     1  UNL1        0.0247
     19 C           8.7295    2.2889    0.0000 C.3     1  UNL1        0.0093
     20 C           5.4753    0.5695    0.0000 C.3     1  UNL1        0.2091
     21 C           9.8047    3.7607    0.0000 C.3     1  UNL1        0.0374
     22 C           6.3076    3.2168    0.0000 C.3     1  UNL1       -0.0444
     23 C           5.6932    2.3833    0.0000 C.3     1  UNL1       -0.0442
     24 C           9.8047    4.7607    0.0000 C.3     1  UNL1        0.1281
     25 C           7.6081    0.3638    0.0000 C.3     1  UNL1       -0.0410
     26 C           8.0727    4.7607    0.0000 C.3     1  UNL1        0.0080
     27 C           8.9387    5.2607    0.0000 C.3     1  UNL1        0.0897
     28 C           5.9148   -0.4155    0.0000 C.3     1  UNL1        0.1570
     29 C           8.1412    1.2423    0.0000 C.3     1  UNL1       -0.0565
     30 C           6.9884   -0.5190    0.0000 C.3     1  UNL1       -0.0099
     31 C          10.6987    5.2953    0.0000 C.3     1  UNL1        0.1100
     32 C          10.6987    3.2260    0.0000 C.3     1  UNL1        0.0076
     33 C          11.6047    4.7815    0.0000 C.3     1  UNL1        0.0417
     34 C          10.5136    6.2781    0.0000 C.3     1  UNL1       -0.0318
     35 C          12.5359    5.3384    0.0000 C.3     1  UNL1       -0.0343
     36 C          12.5359    3.1829    0.0000 C.3     1  UNL1        0.0019
     37 C          13.4797    3.7182    0.0000 C.3     1  UNL1       -0.0310
     38 C          13.4797    4.8032    0.0000 C.3     1  UNL1       -0.0478
     39 C           5.7419   -2.1389    0.0000 C.2     1  UNL1        0.3397
     40 C          14.3438    3.2148    0.0000 C.3     1  UNL1       -0.0613
     41 C           5.1579   -2.9506    0.0000 C.ar    1  UNL1        0.0627
     42 C           4.1629   -2.8508    0.0000 C.ar    1  UNL1       -0.0023
     43 C           5.5690   -3.8623    0.0000 C.ar    1  UNL1       -0.0441
     44 C           3.5790   -3.6626    0.0000 C.ar    1  UNL1        0.1623
     45 C           4.9850   -4.6740    0.0000 C.ar    1  UNL1       -0.0155
     46 C           3.9900   -4.5742    0.0000 C.ar    1  UNL1        0.1615
     47 C           2.0000   -4.3746    0.0000 C.3     1  UNL1        0.0790
     48 C           3.8171   -6.2976    0.0000 C.3     1  UNL1        0.0790
     49 H           6.9893    3.8698    0.0000 H       1  UNL1        0.0358
     50 H           5.2691    1.5193    0.0000 H       1  UNL1        0.0360
     51 H           8.7286    1.6689    0.0000 H       1  UNL1        0.0322
     52 H           9.3460    2.2228    0.0000 H       1  UNL1        0.0322
     53 H          10.5441    4.1800    0.0000 H       1  UNL1        0.0372
     54 H           6.4856    3.8107    0.0000 H       1  UNL1        0.0270
     55 H           5.7529    3.4938    0.0000 H       1  UNL1        0.0270
     56 H           5.2644    2.8311    0.0000 H       1  UNL1        0.0270
     57 H           5.1786    2.0375    0.0000 H       1  UNL1        0.0270
     58 H           8.0471   -0.0740    0.0000 H       1  UNL1        0.0273
     59 H           8.1145    0.7214    0.0000 H       1  UNL1        0.0273
     60 H           7.8606    5.3433    0.0000 H       1  UNL1        0.0320
     61 H           7.4621    4.6530    0.0000 H       1  UNL1        0.0320
     62 H           9.3771    5.6991    0.0000 H       1  UNL1        0.0624
     63 H           5.2980   -0.3524    0.0000 H       1  UNL1        0.0789
     64 H           8.0817    0.6252    0.0000 H       1  UNL1        0.0236
     65 H           8.7584    1.1828    0.0000 H       1  UNL1        0.0236
     66 H           8.2008    1.8594    0.0000 H       1  UNL1        0.0236
     67 H           6.8242   -1.1169    0.0000 H       1  UNL1        0.0303
     68 H           7.5493   -0.7831    0.0000 H       1  UNL1        0.0303
     69 H          10.2941    2.7562    0.0000 H       1  UNL1        0.0431
     70 H          11.0923    2.7470    0.0000 H       1  UNL1        0.0431
     71 H          11.5949    5.6314    0.0000 H       1  UNL1        0.0492
     72 H           7.2066    4.8807    0.0000 H       1  UNL1        0.2103
     73 H           9.8047    2.1407    0.0000 H       1  UNL1        0.2103
     74 H           4.1632    0.0376    0.0000 H       1  UNL1        0.2129
     75 H           9.4947    6.2976    0.0000 H       1  UNL1        0.2104
     76 H          11.1229    6.3928    0.0000 H       1  UNL1        0.0259
     77 H          10.3989    6.8874    0.0000 H       1  UNL1        0.0259
     78 H           9.9044    6.1634    0.0000 H       1  UNL1        0.0259
     79 H          12.9295    5.8174    0.0000 H       1  UNL1        0.0281
     80 H          12.1313    5.8082    0.0000 H       1  UNL1        0.0281
     81 H          12.1313    2.7132    0.0000 H       1  UNL1        0.0429
     82 H          12.9295    2.7039    0.0000 H       1  UNL1        0.0429
     83 H           7.8187    6.1267    0.0000 H       1  UNL1        0.2099
     84 H          11.8086    6.1742    0.0000 H       1  UNL1        0.2103
     85 H          14.0172    4.0271    0.0000 H       1  UNL1        0.0310
     86 H          14.0905    4.6971    0.0000 H       1  UNL1        0.0269
     87 H          13.6887    5.3869    0.0000 H       1  UNL1        0.0269
     88 H          14.0317    2.6791    0.0000 H       1  UNL1        0.0233
     89 H          14.8795    2.9028    0.0000 H       1  UNL1        0.0233
     90 H          14.6558    3.7506    0.0000 H       1  UNL1        0.0233
     91 H           3.9081   -2.2856    0.0000 H       1  UNL1        0.0663
     92 H           6.1859   -3.9242    0.0000 H       1  UNL1        0.0627
     93 H           5.2399   -5.2392    0.0000 H       1  UNL1        0.0655
     94 H           1.4967   -4.0125    0.0000 H       1  UNL1        0.0660
     95 H           1.6379   -4.8778    0.0000 H       1  UNL1        0.0660
     96 H           2.5033   -4.7366    0.0000 H       1  UNL1        0.0660
     97 H           3.2519   -6.5525    0.0000 H       1  UNL1        0.0660
     98 H           4.0719   -6.8628    0.0000 H       1  UNL1        0.0660
     99 H           4.3823   -6.0428    0.0000 H       1  UNL1        0.0660
@<TRIPOS>BOND
     1     1    13    1
     2     1    20    1
     3    16     2    1
     4     2    72    1
     5    17     3    1
     6     3    73    1
     7    20     4    1
     8     4    74    1
     9    24     5    1
    10     5    75    1
    11    28     6    1
    12     6    39    1
    13    27     7    1
    14     7    83    1
    15    31     8    1
    16     8    84    1
    17     9    39    2
    18    10    44    1
    19    10    47    1
    20    11    46    1
    21    11    48    1
    22    12    32    1
    23    12    33    1
    24    12    36    1
    25    13    14    1
    26    13    15    1
    27    13    19    1
    28    14    18    1
    29    14    25    1
    30    14    29    1
    31    15    16    1
    32    15    22    1
    33    15    49    1
    34    16    17    1
    35    16    26    1
    36    17    19    1
    37    17    21    1
    38    18    20    1
    39    18    23    1
    40    18    50    1
    41    19    51    1
    42    19    52    1
    43    20    28    1
    44    21    24    1
    45    21    32    1
    46    21    53    1
    47    22    23    1
    48    22    54    1
    49    22    55    1
    50    23    56    1
    51    23    57    1
    52    24    27    1
    53    24    31    1
    54    25    30    1
    55    25    58    1
    56    25    59    1
    57    26    27    1
    58    26    60    1
    59    26    61    1
    60    27    62    1
    61    28    30    1
    62    28    63    1
    63    29    64    1
    64    29    65    1
    65    29    66    1
    66    30    67    1
    67    30    68    1
    68    31    33    1
    69    31    34    1
    70    32    69    1
    71    32    70    1
    72    33    35    1
    73    33    71    1
    74    34    76    1
    75    34    77    1
    76    34    78    1
    77    35    38    1
    78    35    79    1
    79    35    80    1
    80    36    37    1
    81    36    81    1
    82    36    82    1
    83    37    38    1
    84    37    40    1
    85    37    85    1
    86    38    86    1
    87    38    87    1
    88    39    41    1
    89    40    88    1
    90    40    89    1
    91    40    90    1
    92    41    42   ar
    93    41    43   ar
    94    42    44   ar
    95    42    91    1
    96    43    45   ar
    97    43    92    1
    98    44    46   ar
    99    45    46   ar
   100    45    93    1
   101    47    94    1
   102    47    95    1
   103    47    96    1
   104    48    97    1
   105    48    98    1
   106    48    99    1
