@<TRIPOS>MOLECULE
IMPHY006458
 39 40 0 0 0
SMALL
GASTEIGER

@<TRIPOS>ATOM
      1 C           5.0000   -0.3716    0.0000 C.3     1  UNL1       -0.0019
      2 C           5.5878    0.4374    0.0000 C.3     1  UNL1       -0.0291
      3 C           5.5878   -1.1806    0.0000 C.3     1  UNL1       -0.0342
      4 C           6.5388    0.1284    0.0000 C.3     1  UNL1       -0.0489
      5 C           6.5388   -0.8716    0.0000 C.3     1  UNL1       -0.0494
      6 C           5.2788    1.3885    0.0000 C.3     1  UNL1       -0.0431
      7 C           4.5000   -1.2376    0.0000 C.3     1  UNL1       -0.0246
      8 C           4.5000    0.4945    0.0000 C.2     1  UNL1       -0.0768
      9 C           5.2788   -2.1316    0.0000 C.3     1  UNL1       -0.0616
     10 C           3.5000   -1.2376    0.0000 C.2     1  UNL1       -0.0803
     11 C           5.9479    2.1316    0.0000 C.3     1  UNL1       -0.0624
     12 C           4.3006    1.5964    0.0000 C.3     1  UNL1       -0.0624
     13 C           3.5000    0.4945    0.0000 C.2     1  UNL1       -0.0625
     14 C           3.0000   -0.3716    0.0000 C.2     1  UNL1       -0.0546
     15 C           2.0000   -0.3716    0.0000 C.3     1  UNL1       -0.0400
     16 H           6.0262    0.8759    0.0000 H       1  UNL1        0.0312
     17 H           6.0262   -1.6190    0.0000 H       1  UNL1        0.0307
     18 H           7.1554    0.0636    0.0000 H       1  UNL1        0.0268
     19 H           6.6678    0.7349    0.0000 H       1  UNL1        0.0268
     20 H           6.6678   -1.4780    0.0000 H       1  UNL1        0.0268
     21 H           7.1554   -0.8068    0.0000 H       1  UNL1        0.0268
     22 H           4.8639    0.9278    0.0000 H       1  UNL1        0.0298
     23 H           4.3923   -1.8482    0.0000 H       1  UNL1        0.0316
     24 H           5.0826   -1.4497    0.0000 H       1  UNL1        0.0316
     25 H           4.8100    1.0314    0.0000 H       1  UNL1        0.0578
     26 H           4.6891   -1.9401    0.0000 H       1  UNL1        0.0233
     27 H           5.0872   -2.7213    0.0000 H       1  UNL1        0.0233
     28 H           5.8684   -2.3232    0.0000 H       1  UNL1        0.0233
     29 H           3.1900   -1.7745    0.0000 H       1  UNL1        0.0575
     30 H           6.4086    1.7168    0.0000 H       1  UNL1        0.0232
     31 H           6.3628    2.5924    0.0000 H       1  UNL1        0.0232
     32 H           5.4872    2.5465    0.0000 H       1  UNL1        0.0232
     33 H           4.4295    2.2029    0.0000 H       1  UNL1        0.0232
     34 H           3.6942    1.7253    0.0000 H       1  UNL1        0.0232
     35 H           4.1717    0.9900    0.0000 H       1  UNL1        0.0232
     36 H           3.1900    1.0314    0.0000 H       1  UNL1        0.0617
     37 H           2.0000    0.2484    0.0000 H       1  UNL1        0.0277
     38 H           1.3800   -0.3716    0.0000 H       1  UNL1        0.0277
     39 H           2.0000   -0.9916    0.0000 H       1  UNL1        0.0277
@<TRIPOS>BOND
     1     1     2    1
     2     1     3    1
     3     1     7    1
     4     1     8    1
     5     2     4    1
     6     2     6    1
     7     2    16    1
     8     3     5    1
     9     3     9    1
    10     3    17    1
    11     4     5    1
    12     4    18    1
    13     4    19    1
    14     5    20    1
    15     5    21    1
    16     6    11    1
    17     6    12    1
    18     6    22    1
    19     7    10    1
    20     7    23    1
    21     7    24    1
    22     8    13    2
    23     8    25    1
    24     9    26    1
    25     9    27    1
    26     9    28    1
    27    10    14    2
    28    10    29    1
    29    11    30    1
    30    11    31    1
    31    11    32    1
    32    12    33    1
    33    12    34    1
    34    12    35    1
    35    13    14    1
    36    13    36    1
    37    14    15    1
    38    15    37    1
    39    15    38    1
    40    15    39    1
