@<TRIPOS>MOLECULE
IMPHY016249
 20 20 0 0 0
SMALL
GASTEIGER

@<TRIPOS>ATOM
      1 O           2.8660    0.3450    0.0000 O.3     1  UNL1       -0.4915
      2 O           4.5981    1.3450    0.0000 O.3     1  UNL1       -0.5033
      3 C           5.4641   -1.1550    0.0000 C.ar    1  UNL1       -0.0468
      4 C           3.7320   -0.1550    0.0000 C.ar    1  UNL1        0.1613
      5 C           5.4641   -0.1550    0.0000 C.ar    1  UNL1       -0.0136
      6 C           4.5981    0.3450    0.0000 C.ar    1  UNL1        0.1587
      7 C           4.5981   -1.6550    0.0000 C.ar    1  UNL1       -0.0552
      8 C           3.7320   -1.1550    0.0000 C.ar    1  UNL1       -0.0161
      9 C           6.3301   -1.6550    0.0000 C.3     1  UNL1       -0.0396
     10 C           2.0000   -0.1550    0.0000 C.3     1  UNL1        0.0790
     11 H           6.0010    0.1550    0.0000 H       1  UNL1        0.0658
     12 H           4.5981   -2.2750    0.0000 H       1  UNL1        0.0621
     13 H           3.1951   -1.4650    0.0000 H       1  UNL1        0.0655
     14 H           6.0201   -2.1919    0.0000 H       1  UNL1        0.0278
     15 H           6.8671   -1.9650    0.0000 H       1  UNL1        0.0278
     16 H           6.6401   -1.1181    0.0000 H       1  UNL1        0.0278
     17 H           1.6900    0.3819    0.0000 H       1  UNL1        0.0660
     18 H           1.4631   -0.4650    0.0000 H       1  UNL1        0.0660
     19 H           2.3100   -0.6919    0.0000 H       1  UNL1        0.0660
     20 H           5.1350    1.6550    0.0000 H       1  UNL1        0.2923
@<TRIPOS>BOND
     1     1     4    1
     2     1    10    1
     3     2     6    1
     4     2    20    1
     5     3     5   ar
     6     3     7   ar
     7     3     9    1
     8     4     6   ar
     9     4     8   ar
    10     5     6   ar
    11     5    11    1
    12     7     8   ar
    13     7    12    1
    14     8    13    1
    15     9    14    1
    16     9    15    1
    17     9    16    1
    18    10    17    1
    19    10    18    1
    20    10    19    1
