@<TRIPOS>MOLECULE
IMPHY005425
 71 76 0 0 0
SMALL
GASTEIGER

@<TRIPOS>ATOM
      1 O          10.3215    2.1227    0.0000 O.3     1  UNL1       -0.4914
      2 O          12.0954    1.0986    0.0000 O.3     1  UNL1       -0.4914
      3 N           8.5774   -1.9466    0.0000 N.3     1  UNL1       -0.2948
      4 N           6.8192    1.0984    0.0000 N.3     1  UNL1       -0.3078
      5 N           4.0705    0.7890    0.0000 N.ar    1  UNL1       -0.3565
      6 C           6.7774   -0.9257    0.0000 C.3     1  UNL1       -0.0336
      7 C           6.7774   -1.9674    0.0000 C.3     1  UNL1       -0.0255
      8 C           8.5774   -0.9465    0.0000 C.3     1  UNL1        0.0363
      9 C           7.6834   -0.4119    0.0000 C.3     1  UNL1       -0.0300
     10 C           7.6834   -2.4812    0.0000 C.3     1  UNL1        0.0026
     11 C           5.9133   -0.4224    0.0000 C.3     1  UNL1       -0.0288
     12 C           5.9171    0.5776    0.0000 C.3     1  UNL1        0.0486
     13 C           5.9133   -2.4707    0.0000 C.3     1  UNL1       -0.0516
     14 C           9.4434   -2.4465    0.0000 C.3     1  UNL1        0.0035
     15 C           9.4434   -0.4465    0.0000 C.ar    1  UNL1       -0.0234
     16 C          10.3094   -1.9466    0.0000 C.3     1  UNL1       -0.0144
     17 C          10.3094   -0.9465    0.0000 C.ar    1  UNL1       -0.0378
     18 C           5.0191    1.1054    0.0000 C.ar    1  UNL1        0.0374
     19 C           5.9171   -3.4707    0.0000 C.3     1  UNL1       -0.0650
     20 C           5.0114    2.1053    0.0000 C.ar    1  UNL1       -0.0164
     21 C           9.4274    0.5950    0.0000 C.ar    1  UNL1       -0.0114
     22 C           6.8112    2.1400    0.0000 C.3     1  UNL1        0.0005
     23 C           5.9012    2.6469    0.0000 C.3     1  UNL1       -0.0128
     24 C          11.2194   -0.4397    0.0000 C.ar    1  UNL1       -0.0128
     25 C           4.0580    2.4070    0.0000 C.ar    1  UNL1        0.0032
     26 C          10.3254    1.1227    0.0000 C.ar    1  UNL1        0.1618
     27 C           3.4765    1.5935    0.0000 C.ar    1  UNL1        0.0470
     28 C          11.2275    0.6019    0.0000 C.ar    1  UNL1        0.1618
     29 C           3.6417    3.3618    0.0000 C.ar    1  UNL1       -0.0523
     30 C           2.4383    1.6784    0.0000 C.ar    1  UNL1       -0.0378
     31 C           2.6057    3.4707    0.0000 C.ar    1  UNL1       -0.0611
     32 C           2.0000    2.6233    0.0000 C.ar    1  UNL1       -0.0598
     33 C          11.1856    2.6260    0.0000 C.3     1  UNL1        0.0790
     34 C          12.9595    0.5952    0.0000 C.3     1  UNL1        0.0790
     35 H           6.7810   -0.3057    0.0000 H       1  UNL1        0.0305
     36 H           6.2398   -1.6584    0.0000 H       1  UNL1        0.0316
     37 H           8.5839   -0.0966    0.0000 H       1  UNL1        0.0512
     38 H           8.0881    0.0579    0.0000 H       1  UNL1        0.0286
     39 H           7.2898    0.0671    0.0000 H       1  UNL1        0.0286
     40 H           7.2898   -2.9602    0.0000 H       1  UNL1        0.0429
     41 H           8.0881   -2.9510    0.0000 H       1  UNL1        0.0429
     42 H           5.3031   -0.3124    0.0000 H       1  UNL1        0.0287
     43 H           5.6990   -1.0042    0.0000 H       1  UNL1        0.0287
     44 H           6.4535    0.2666    0.0000 H       1  UNL1        0.0525
     45 H           5.6990   -1.8889    0.0000 H       1  UNL1        0.0266
     46 H           5.3031   -2.5807    0.0000 H       1  UNL1        0.0266
     47 H           9.0449   -2.9215    0.0000 H       1  UNL1        0.0430
     48 H           9.8419   -2.9215    0.0000 H       1  UNL1        0.0430
     49 H          10.5215   -2.5292    0.0000 H       1  UNL1        0.0326
     50 H          10.9200   -1.8389    0.0000 H       1  UNL1        0.0326
     51 H           7.3574    0.7905    0.0000 H       1  UNL1        0.1226
     52 H           5.2972   -3.4731    0.0000 H       1  UNL1        0.0230
     53 H           5.9195   -4.0907    0.0000 H       1  UNL1        0.0230
     54 H           6.5371   -3.4683    0.0000 H       1  UNL1        0.0230
     55 H           8.8869    0.8987    0.0000 H       1  UNL1        0.0659
     56 H           7.4228    2.0386    0.0000 H       1  UNL1        0.0427
     57 H           7.0157    2.7253    0.0000 H       1  UNL1        0.0427
     58 H           6.2911    3.1289    0.0000 H       1  UNL1        0.0326
     59 H           5.4930    3.1135    0.0000 H       1  UNL1        0.0326
     60 H          11.7528   -0.7559    0.0000 H       1  UNL1        0.0658
     61 H           3.8834    0.1979    0.0000 H       1  UNL1        0.1656
     62 H           4.0080    3.8620    0.0000 H       1  UNL1        0.0624
     63 H           2.0836    1.1698    0.0000 H       1  UNL1        0.0638
     64 H           2.3514    4.0361    0.0000 H       1  UNL1        0.0618
     65 H           1.3827    2.6810    0.0000 H       1  UNL1        0.0618
     66 H          11.4977    2.0903    0.0000 H       1  UNL1        0.0660
     67 H          11.7214    2.9381    0.0000 H       1  UNL1        0.0660
     68 H          10.8736    3.1618    0.0000 H       1  UNL1        0.0660
     69 H          12.6474    0.0595    0.0000 H       1  UNL1        0.0660
     70 H          13.4952    0.2832    0.0000 H       1  UNL1        0.0660
     71 H          13.2716    1.1310    0.0000 H       1  UNL1        0.0660
@<TRIPOS>BOND
     1     1    26    1
     2     1    33    1
     3     2    28    1
     4     2    34    1
     5     3     8    1
     6     3    10    1
     7     3    14    1
     8     4    12    1
     9     4    22    1
    10     4    51    1
    11     5    18   ar
    12     5    27   ar
    13     5    61    1
    14     6     7    1
    15     6     9    1
    16     6    11    1
    17     6    35    1
    18     7    10    1
    19     7    13    1
    20     7    36    1
    21     8     9    1
    22     8    15    1
    23     8    37    1
    24     9    38    1
    25     9    39    1
    26    10    40    1
    27    10    41    1
    28    12    11    1
    29    11    42    1
    30    11    43    1
    31    12    18    1
    32    12    44    1
    33    13    19    1
    34    13    45    1
    35    13    46    1
    36    14    16    1
    37    14    47    1
    38    14    48    1
    39    15    17   ar
    40    15    21   ar
    41    16    17    1
    42    16    49    1
    43    16    50    1
    44    17    24   ar
    45    18    20   ar
    46    19    52    1
    47    19    53    1
    48    19    54    1
    49    20    23    1
    50    20    25   ar
    51    21    26   ar
    52    21    55    1
    53    22    23    1
    54    22    56    1
    55    22    57    1
    56    23    58    1
    57    23    59    1
    58    24    28   ar
    59    24    60    1
    60    25    27   ar
    61    25    29   ar
    62    26    28   ar
    63    27    30   ar
    64    29    31   ar
    65    29    62    1
    66    30    32   ar
    67    30    63    1
    68    31    32   ar
    69    31    64    1
    70    32    65    1
    71    33    66    1
    72    33    67    1
    73    33    68    1
    74    34    69    1
    75    34    70    1
    76    34    71    1
