@<TRIPOS>MOLECULE
IMPHY001393
 76 79 0 0 0
SMALL
GASTEIGER

@<TRIPOS>ATOM
      1 O           6.8671   -1.5039    0.0000 O.3     1  UNL1       -0.3912
      2 O           6.0010   -1.2719    0.0000 O.3     1  UNL1       -0.3481
      3 O           4.2690   -1.2719    0.0000 O.3     1  UNL1       -0.3405
      4 O           6.0010   -3.2719    0.0000 O.3     1  UNL1       -0.3841
      5 O          12.9561    3.3073    0.0000 O.3     1  UNL1       -0.4584
      6 O           4.2690   -4.2719    0.0000 O.3     1  UNL1       -0.3864
      7 O           2.5369   -3.2719    0.0000 O.3     1  UNL1       -0.3865
      8 O          11.6700    1.0620    0.0000 O.3     1  UNL1       -0.3836
      9 O          11.7107    4.5819    0.0000 O.2     1  UNL1       -0.2452
     10 O           2.5369   -0.2719    0.0000 O.3     1  UNL1       -0.3924
     11 C           8.3671    1.0942    0.0000 C.3     1  UNL1       -0.0217
     12 C           7.3671    1.0942    0.0000 C.3     1  UNL1       -0.0249
     13 C           6.8671    0.2281    0.0000 C.3     1  UNL1        0.0206
     14 C           8.9017    1.9881    0.0000 C.3     1  UNL1       -0.0110
     15 C           8.8671    0.2281    0.0000 C.3     1  UNL1       -0.0444
     16 C           7.3671   -0.6379    0.0000 C.3     1  UNL1        0.0630
     17 C           6.8324    1.9881    0.0000 C.3     1  UNL1       -0.0454
     18 C           8.3671   -0.6379    0.0000 C.3     1  UNL1       -0.0257
     19 C           9.3671    1.0942    0.0000 C.3     1  UNL1       -0.0587
     20 C           7.3462    2.8941    0.0000 C.3     1  UNL1       -0.0314
     21 C           8.3879    2.8941    0.0000 C.2     1  UNL1       -0.0727
     22 C           6.0010   -0.2719    0.0000 C.3     1  UNL1        0.0588
     23 C           6.0010    0.7281    0.0000 C.3     1  UNL1       -0.0548
     24 C           9.9017    1.9765    0.0000 C.3     1  UNL1       -0.0269
     25 C           8.8912    3.7582    0.0000 C.2     1  UNL1       -0.0992
     26 C          10.4116    2.8367    0.0000 C.2     1  UNL1       -0.0709
     27 C           5.1350   -1.7719    0.0000 C.3     1  UNL1        0.1879
     28 C           5.1350   -2.7719    0.0000 C.3     1  UNL1        0.1341
     29 C          11.4116    2.8252    0.0000 C.2     1  UNL1        0.0642
     30 C           4.2690   -3.2719    0.0000 C.3     1  UNL1        0.1141
     31 C           3.4030   -1.7719    0.0000 C.3     1  UNL1        0.1130
     32 C           3.4030   -2.7719    0.0000 C.3     1  UNL1        0.1119
     33 C          11.9900    2.0094    0.0000 C.3     1  UNL1        0.1205
     34 C          12.0087    3.6273    0.0000 C.2     1  UNL1        0.3375
     35 C          12.9445    2.3074    0.0000 C.3     1  UNL1        0.1229
     36 C           2.5369   -1.2719    0.0000 C.3     1  UNL1        0.0730
     37 H           6.5171    1.0876    0.0000 H       1  UNL1        0.0313
     38 H           9.2169    2.5220    0.0000 H       1  UNL1        0.0354
     39 H           9.3420   -0.1704    0.0000 H       1  UNL1        0.0272
     40 H           9.3420    0.6266    0.0000 H       1  UNL1        0.0272
     41 H           6.7471   -0.6379    0.0000 H       1  UNL1        0.0599
     42 H           6.3534    2.3817    0.0000 H       1  UNL1        0.0271
     43 H           6.3626    1.5835    0.0000 H       1  UNL1        0.0271
     44 H           8.2594   -1.2485    0.0000 H       1  UNL1        0.0290
     45 H           8.9497   -0.8500    0.0000 H       1  UNL1        0.0290
     46 H           9.3671    0.4741    0.0000 H       1  UNL1        0.0235
     47 H           9.9871    1.0942    0.0000 H       1  UNL1        0.0235
     48 H           9.3671    1.7142    0.0000 H       1  UNL1        0.0235
     49 H           7.4523    3.5050    0.0000 H       1  UNL1        0.0310
     50 H           6.7626    3.1032    0.0000 H       1  UNL1        0.0310
     51 H           5.7890    0.3107    0.0000 H       1  UNL1        0.0567
     52 H           5.3905   -0.3795    0.0000 H       1  UNL1        0.0567
     53 H           6.3110    1.2651    0.0000 H       1  UNL1        0.0237
     54 H           5.4641    1.0381    0.0000 H       1  UNL1        0.0237
     55 H           5.6910    0.1912    0.0000 H       1  UNL1        0.0237
     56 H           9.7869    1.3672    0.0000 H       1  UNL1        0.0313
     57 H          10.4818    1.7578    0.0000 H       1  UNL1        0.0313
     58 H           7.1771   -2.0409    0.0000 H       1  UNL1        0.2098
     59 H           9.5112    3.7559    0.0000 H       1  UNL1        0.0534
     60 H           8.5833    4.2964    0.0000 H       1  UNL1        0.0534
     61 H          10.1079    3.3772    0.0000 H       1  UNL1        0.0578
     62 H           5.1350   -1.1519    0.0000 H       1  UNL1        0.0937
     63 H           5.1350   -3.3919    0.0000 H       1  UNL1        0.0671
     64 H           3.7320   -3.5819    0.0000 H       1  UNL1        0.0648
     65 H           3.4030   -1.1519    0.0000 H       1  UNL1        0.0647
     66 H           2.8660   -2.4619    0.0000 H       1  UNL1        0.0647
     67 H          12.4233    1.5659    0.0000 H       1  UNL1        0.0680
     68 H          13.0664    1.6995    0.0000 H       1  UNL1        0.0727
     69 H          13.5618    2.3651    0.0000 H       1  UNL1        0.0727
     70 H           6.5380   -2.9619    0.0000 H       1  UNL1        0.2101
     71 H           1.9264   -1.1642    0.0000 H       1  UNL1        0.0584
     72 H           2.3249   -1.8545    0.0000 H       1  UNL1        0.0584
     73 H           3.7320   -4.5819    0.0000 H       1  UNL1        0.2100
     74 H           2.0000   -2.9619    0.0000 H       1  UNL1        0.2100
     75 H          12.0795    0.5965    0.0000 H       1  UNL1        0.2104
     76 H           2.0000    0.0381    0.0000 H       1  UNL1        0.2095
@<TRIPOS>BOND
     1    16     1    1
     2     1    58    1
     3     2    22    1
     4    27     2    1
     5     3    27    1
     6     3    31    1
     7    28     4    1
     8     4    70    1
     9     5    34    1
    10     5    35    1
    11    30     6    1
    12     6    73    1
    13    32     7    1
    14     7    74    1
    15    33     8    1
    16     8    75    1
    17     9    34    2
    18    10    36    1
    19    10    76    1
    20    11    12    1
    21    11    14    1
    22    11    15    1
    23    11    19    1
    24    12    13    1
    25    12    17    1
    26    12    37    1
    27    13    16    1
    28    13    22    1
    29    13    23    1
    30    14    21    1
    31    14    24    1
    32    14    38    1
    33    15    18    1
    34    15    39    1
    35    15    40    1
    36    16    18    1
    37    16    41    1
    38    17    20    1
    39    17    42    1
    40    17    43    1
    41    18    44    1
    42    18    45    1
    43    19    46    1
    44    19    47    1
    45    19    48    1
    46    20    21    1
    47    20    49    1
    48    20    50    1
    49    21    25    2
    50    22    51    1
    51    22    52    1
    52    23    53    1
    53    23    54    1
    54    23    55    1
    55    24    26    1
    56    24    56    1
    57    24    57    1
    58    25    59    1
    59    25    60    1
    60    26    29    2
    61    26    61    1
    62    27    28    1
    63    27    62    1
    64    28    30    1
    65    28    63    1
    66    29    33    1
    67    29    34    1
    68    30    32    1
    69    30    64    1
    70    31    32    1
    71    31    36    1
    72    31    65    1
    73    32    66    1
    74    33    35    1
    75    33    67    1
    76    35    68    1
    77    35    69    1
    78    36    71    1
    79    36    72    1
