@<TRIPOS>MOLECULE
IMPHY011493
 46 50 0 0 0
SMALL
GASTEIGER

@<TRIPOS>ATOM
      1 O           2.8718   -0.5688    0.0000 O.3     1  UNL1       -0.4908
      2 O           2.8560   -2.6170    0.0000 O.3     1  UNL1       -0.4914
      3 O           4.4081    3.5096    0.0000 O.3     1  UNL1       -0.4526
      4 O           2.9562    2.6714    0.0000 O.3     1  UNL1       -0.4526
      5 N           7.2334   -1.0667    0.0000 N.3     1  UNL1       -0.2978
      6 C           6.3740   -0.5719    0.0000 C.3     1  UNL1        0.0403
      7 C           5.5080   -1.0719    0.0000 C.ar    1  UNL1       -0.0153
      8 C           6.3740    0.4281    0.0000 C.3     1  UNL1       -0.0072
      9 C           5.5240   -2.1134    0.0000 C.ar    1  UNL1       -0.0372
     10 C           4.6419   -0.5719    0.0000 C.ar    1  UNL1        0.0327
     11 C           7.2469   -2.0583    0.0000 C.3     1  UNL1        0.0032
     12 C           6.4011   -2.5762    0.0000 C.3     1  UNL1       -0.0144
     13 C           5.5080    0.9281    0.0000 C.ar    1  UNL1       -0.0341
     14 C           4.6419    0.4281    0.0000 C.ar    1  UNL1       -0.0070
     15 C           3.7319   -1.0787    0.0000 C.ar    1  UNL1        0.1695
     16 C           4.6260   -2.6412    0.0000 C.ar    1  UNL1       -0.0127
     17 C           8.0958   -0.5603    0.0000 C.3     1  UNL1       -0.0122
     18 C           5.5240    1.9696    0.0000 C.ar    1  UNL1       -0.0123
     19 C           3.7239   -2.1203    0.0000 C.ar    1  UNL1        0.1624
     20 C           3.7319    0.9350    0.0000 C.ar    1  UNL1       -0.0080
     21 C           4.6260    2.4974    0.0000 C.ar    1  UNL1        0.1665
     22 C           3.7239    1.9766    0.0000 C.ar    1  UNL1        0.1668
     23 C           3.3782    3.6170    0.0000 C.3     1  UNL1        0.2332
     24 C           2.0000   -1.0587    0.0000 C.3     1  UNL1        0.0790
     25 C           2.8521   -3.6170    0.0000 C.3     1  UNL1        0.0790
     26 H           7.1098   -0.1464    0.0000 H       1  UNL1        0.0516
     27 H           6.9846    0.3204    0.0000 H       1  UNL1        0.0332
     28 H           6.5860    1.0107    0.0000 H       1  UNL1        0.0332
     29 H           7.4716   -2.6361    0.0000 H       1  UNL1        0.0430
     30 H           7.8555   -1.9399    0.0000 H       1  UNL1        0.0430
     31 H           6.0190   -3.0644    0.0000 H       1  UNL1        0.0326
     32 H           6.8137   -3.0390    0.0000 H       1  UNL1        0.0326
     33 H           4.6284   -3.2612    0.0000 H       1  UNL1        0.0658
     34 H           8.4097   -1.0949    0.0000 H       1  UNL1        0.0391
     35 H           8.6304   -0.2463    0.0000 H       1  UNL1        0.0391
     36 H           7.7818   -0.0256    0.0000 H       1  UNL1        0.0391
     37 H           6.0645    2.2734    0.0000 H       1  UNL1        0.0658
     38 H           3.1986    0.6188    0.0000 H       1  UNL1        0.0661
     39 H           3.5069    4.2235    0.0000 H       1  UNL1        0.1166
     40 H           2.7886    3.8088    0.0000 H       1  UNL1        0.1166
     41 H           1.6962   -0.5182    0.0000 H       1  UNL1        0.0660
     42 H           1.4595   -1.3625    0.0000 H       1  UNL1        0.0660
     43 H           2.3038   -1.5992    0.0000 H       1  UNL1        0.0660
     44 H           2.2321   -3.6146    0.0000 H       1  UNL1        0.0660
     45 H           2.8497   -4.2370    0.0000 H       1  UNL1        0.0660
     46 H           3.4721   -3.6194    0.0000 H       1  UNL1        0.0660
@<TRIPOS>BOND
     1     1    15    1
     2     1    24    1
     3     2    19    1
     4     2    25    1
     5     3    21    1
     6     3    23    1
     7     4    22    1
     8     4    23    1
     9     5     6    1
    10     5    11    1
    11     5    17    1
    12     6     7    1
    13     6     8    1
    14     6    26    1
    15     7     9   ar
    16     7    10   ar
    17     8    13    1
    18     8    27    1
    19     8    28    1
    20     9    12    1
    21     9    16   ar
    22    10    14    1
    23    10    15   ar
    24    11    12    1
    25    11    29    1
    26    11    30    1
    27    12    31    1
    28    12    32    1
    29    13    14   ar
    30    13    18   ar
    31    14    20   ar
    32    15    19   ar
    33    16    19   ar
    34    16    33    1
    35    17    34    1
    36    17    35    1
    37    17    36    1
    38    18    21   ar
    39    18    37    1
    40    20    22   ar
    41    20    38    1
    42    21    22   ar
    43    23    39    1
    44    23    40    1
    45    24    41    1
    46    24    42    1
    47    24    43    1
    48    25    44    1
    49    25    45    1
    50    25    46    1
