@<TRIPOS>MOLECULE
IMPHY013548
 104 103 0 0 0
SMALL
GASTEIGER

@<TRIPOS>ATOM
      1 O           6.0010   -0.7500    0.0000 O.2     1  UNL1       -0.2974
      2 O           2.5369    0.2500    0.0000 O.3     1  UNL1       -0.3950
      3 C          18.9914    0.7500    0.0000 C.3     1  UNL1       -0.0531
      4 C          18.1254    0.2500    0.0000 C.3     1  UNL1       -0.0531
      5 C          19.8574    0.2500    0.0000 C.3     1  UNL1       -0.0531
      6 C          17.2594    0.7500    0.0000 C.3     1  UNL1       -0.0531
      7 C          20.7235    0.7500    0.0000 C.3     1  UNL1       -0.0531
      8 C          16.3933    0.2500    0.0000 C.3     1  UNL1       -0.0531
      9 C          21.5895    0.2500    0.0000 C.3     1  UNL1       -0.0531
     10 C          15.5273    0.7500    0.0000 C.3     1  UNL1       -0.0531
     11 C          22.4555    0.7500    0.0000 C.3     1  UNL1       -0.0531
     12 C          14.6613    0.2500    0.0000 C.3     1  UNL1       -0.0531
     13 C          23.3215    0.2500    0.0000 C.3     1  UNL1       -0.0531
     14 C          13.7953    0.7500    0.0000 C.3     1  UNL1       -0.0531
     15 C          24.1876    0.7500    0.0000 C.3     1  UNL1       -0.0531
     16 C          12.9292    0.2500    0.0000 C.3     1  UNL1       -0.0531
     17 C          25.0536    0.2500    0.0000 C.3     1  UNL1       -0.0531
     18 C          12.0632    0.7500    0.0000 C.3     1  UNL1       -0.0531
     19 C          25.9196    0.7500    0.0000 C.3     1  UNL1       -0.0531
     20 C          11.1972    0.2500    0.0000 C.3     1  UNL1       -0.0531
     21 C          26.7856    0.2500    0.0000 C.3     1  UNL1       -0.0531
     22 C          10.3312    0.7500    0.0000 C.3     1  UNL1       -0.0531
     23 C          27.6517    0.7500    0.0000 C.3     1  UNL1       -0.0531
     24 C           9.4651    0.2500    0.0000 C.3     1  UNL1       -0.0530
     25 C          28.5177    0.2500    0.0000 C.3     1  UNL1       -0.0531
     26 C           8.5991    0.7500    0.0000 C.3     1  UNL1       -0.0527
     27 C          29.3837    0.7500    0.0000 C.3     1  UNL1       -0.0531
     28 C           7.7331    0.2500    0.0000 C.3     1  UNL1       -0.0464
     29 C          30.2497    0.2500    0.0000 C.3     1  UNL1       -0.0533
     30 C           6.8671    0.7500    0.0000 C.3     1  UNL1        0.0058
     31 C          31.1158    0.7500    0.0000 C.3     1  UNL1       -0.0559
     32 C           6.0010    0.2500    0.0000 C.2     1  UNL1        0.1334
     33 C          31.9818    0.2500    0.0000 C.3     1  UNL1       -0.0653
     34 C           5.1350    0.7500    0.0000 C.3     1  UNL1        0.0079
     35 C           4.2690    0.2500    0.0000 C.3     1  UNL1       -0.0230
     36 C           3.4030    0.7500    0.0000 C.3     1  UNL1        0.0446
     37 H          19.3899    1.2250    0.0000 H       1  UNL1        0.0265
     38 H          18.5929    1.2250    0.0000 H       1  UNL1        0.0265
     39 H          17.7269   -0.2249    0.0000 H       1  UNL1        0.0265
     40 H          18.5239   -0.2249    0.0000 H       1  UNL1        0.0265
     41 H          19.4589   -0.2249    0.0000 H       1  UNL1        0.0265
     42 H          20.2560   -0.2249    0.0000 H       1  UNL1        0.0265
     43 H          17.6579    1.2250    0.0000 H       1  UNL1        0.0265
     44 H          16.8608    1.2250    0.0000 H       1  UNL1        0.0265
     45 H          21.1220    1.2250    0.0000 H       1  UNL1        0.0265
     46 H          20.3249    1.2250    0.0000 H       1  UNL1        0.0265
     47 H          15.9948   -0.2249    0.0000 H       1  UNL1        0.0265
     48 H          16.7919   -0.2249    0.0000 H       1  UNL1        0.0265
     49 H          21.1910   -0.2249    0.0000 H       1  UNL1        0.0265
     50 H          21.9880   -0.2249    0.0000 H       1  UNL1        0.0265
     51 H          15.9258    1.2250    0.0000 H       1  UNL1        0.0265
     52 H          15.1288    1.2250    0.0000 H       1  UNL1        0.0265
     53 H          22.8540    1.2250    0.0000 H       1  UNL1        0.0265
     54 H          22.0570    1.2250    0.0000 H       1  UNL1        0.0265
     55 H          14.2628   -0.2249    0.0000 H       1  UNL1        0.0265
     56 H          15.0598   -0.2249    0.0000 H       1  UNL1        0.0265
     57 H          22.9230   -0.2249    0.0000 H       1  UNL1        0.0265
     58 H          23.7201   -0.2249    0.0000 H       1  UNL1        0.0265
     59 H          14.1938    1.2250    0.0000 H       1  UNL1        0.0265
     60 H          13.3967    1.2250    0.0000 H       1  UNL1        0.0265
     61 H          24.5861    1.2250    0.0000 H       1  UNL1        0.0265
     62 H          23.7890    1.2250    0.0000 H       1  UNL1        0.0265
     63 H          12.5307   -0.2249    0.0000 H       1  UNL1        0.0265
     64 H          13.3278   -0.2249    0.0000 H       1  UNL1        0.0265
     65 H          24.6551   -0.2249    0.0000 H       1  UNL1        0.0265
     66 H          25.4521   -0.2249    0.0000 H       1  UNL1        0.0265
     67 H          12.4617    1.2250    0.0000 H       1  UNL1        0.0265
     68 H          11.6647    1.2250    0.0000 H       1  UNL1        0.0265
     69 H          26.3182    1.2250    0.0000 H       1  UNL1        0.0265
     70 H          25.5211    1.2250    0.0000 H       1  UNL1        0.0265
     71 H          10.7987   -0.2249    0.0000 H       1  UNL1        0.0265
     72 H          11.5957   -0.2249    0.0000 H       1  UNL1        0.0265
     73 H          26.3871   -0.2249    0.0000 H       1  UNL1        0.0265
     74 H          27.1842   -0.2249    0.0000 H       1  UNL1        0.0265
     75 H          10.7297    1.2250    0.0000 H       1  UNL1        0.0265
     76 H           9.9326    1.2250    0.0000 H       1  UNL1        0.0265
     77 H          28.0502    1.2250    0.0000 H       1  UNL1        0.0265
     78 H          27.2531    1.2250    0.0000 H       1  UNL1        0.0265
     79 H           9.0666   -0.2249    0.0000 H       1  UNL1        0.0265
     80 H           9.8637   -0.2249    0.0000 H       1  UNL1        0.0265
     81 H          28.1192   -0.2249    0.0000 H       1  UNL1        0.0265
     82 H          28.9162   -0.2249    0.0000 H       1  UNL1        0.0265
     83 H           8.9976    1.2250    0.0000 H       1  UNL1        0.0265
     84 H           8.2006    1.2250    0.0000 H       1  UNL1        0.0265
     85 H          29.7823    1.2250    0.0000 H       1  UNL1        0.0265
     86 H          28.9852    1.2250    0.0000 H       1  UNL1        0.0265
     87 H           7.3346   -0.2249    0.0000 H       1  UNL1        0.0269
     88 H           8.1316   -0.2249    0.0000 H       1  UNL1        0.0269
     89 H          29.8512   -0.2249    0.0000 H       1  UNL1        0.0265
     90 H          30.6483   -0.2249    0.0000 H       1  UNL1        0.0265
     91 H           7.2656    1.2250    0.0000 H       1  UNL1        0.0342
     92 H           6.4685    1.2250    0.0000 H       1  UNL1        0.0342
     93 H          31.5143    1.2250    0.0000 H       1  UNL1        0.0263
     94 H          30.7172    1.2250    0.0000 H       1  UNL1        0.0263
     95 H          31.6718   -0.2869    0.0000 H       1  UNL1        0.0230
     96 H          32.5187   -0.0600    0.0000 H       1  UNL1        0.0230
     97 H          32.2918    0.7869    0.0000 H       1  UNL1        0.0230
     98 H           5.5335    1.2250    0.0000 H       1  UNL1        0.0342
     99 H           4.7365    1.2250    0.0000 H       1  UNL1        0.0342
    100 H           3.8705   -0.2249    0.0000 H       1  UNL1        0.0291
    101 H           4.6675   -0.2249    0.0000 H       1  UNL1        0.0291
    102 H           3.8015    1.2250    0.0000 H       1  UNL1        0.0557
    103 H           3.0044    1.2250    0.0000 H       1  UNL1        0.0557
    104 H           2.0000    0.5600    0.0000 H       1  UNL1        0.2094
@<TRIPOS>BOND
     1     1    32    2
     2     2    36    1
     3     2   104    1
     4     3     4    1
     5     3     5    1
     6     3    37    1
     7     3    38    1
     8     4     6    1
     9     4    39    1
    10     4    40    1
    11     5     7    1
    12     5    41    1
    13     5    42    1
    14     6     8    1
    15     6    43    1
    16     6    44    1
    17     7     9    1
    18     7    45    1
    19     7    46    1
    20     8    10    1
    21     8    47    1
    22     8    48    1
    23     9    11    1
    24     9    49    1
    25     9    50    1
    26    10    12    1
    27    10    51    1
    28    10    52    1
    29    11    13    1
    30    11    53    1
    31    11    54    1
    32    12    14    1
    33    12    55    1
    34    12    56    1
    35    13    15    1
    36    13    57    1
    37    13    58    1
    38    14    16    1
    39    14    59    1
    40    14    60    1
    41    15    17    1
    42    15    61    1
    43    15    62    1
    44    16    18    1
    45    16    63    1
    46    16    64    1
    47    17    19    1
    48    17    65    1
    49    17    66    1
    50    18    20    1
    51    18    67    1
    52    18    68    1
    53    19    21    1
    54    19    69    1
    55    19    70    1
    56    20    22    1
    57    20    71    1
    58    20    72    1
    59    21    23    1
    60    21    73    1
    61    21    74    1
    62    22    24    1
    63    22    75    1
    64    22    76    1
    65    23    25    1
    66    23    77    1
    67    23    78    1
    68    24    26    1
    69    24    79    1
    70    24    80    1
    71    25    27    1
    72    25    81    1
    73    25    82    1
    74    26    28    1
    75    26    83    1
    76    26    84    1
    77    27    29    1
    78    27    85    1
    79    27    86    1
    80    28    30    1
    81    28    87    1
    82    28    88    1
    83    29    31    1
    84    29    89    1
    85    29    90    1
    86    30    32    1
    87    30    91    1
    88    30    92    1
    89    31    33    1
    90    31    93    1
    91    31    94    1
    92    32    34    1
    93    33    95    1
    94    33    96    1
    95    33    97    1
    96    34    35    1
    97    34    98    1
    98    34    99    1
    99    35    36    1
   100    35   100    1
   101    35   101    1
   102    36   102    1
   103    36   103    1
