@<TRIPOS>MOLECULE
IMPHY015169
 38 39 0 0 0
SMALL
GASTEIGER

@<TRIPOS>ATOM
      1 O           2.0000    2.5000    0.0000 O.2     1  UNL1       -0.2960
      2 C           3.7320   -0.5000    0.0000 C.3     1  UNL1       -0.0124
      3 C           2.8660   -1.0000    0.0000 C.3     1  UNL1       -0.0284
      4 C           3.7320    0.5000    0.0000 C.3     1  UNL1       -0.0063
      5 C           2.8660   -2.0000    0.0000 C.3     1  UNL1       -0.0431
      6 C           4.6260    1.0347    0.0000 C.3     1  UNL1       -0.0419
      7 C           2.0000   -0.5000    0.0000 C.3     1  UNL1       -0.0305
      8 C           2.8660    1.0000    0.0000 C.2     1  UNL1       -0.0084
      9 C           4.6260   -1.0347    0.0000 C.2     1  UNL1       -0.0811
     10 C           5.5321    0.5208    0.0000 C.3     1  UNL1       -0.0314
     11 C           2.0000    0.5000    0.0000 C.2     1  UNL1       -0.0772
     12 C           5.5321   -0.5208    0.0000 C.2     1  UNL1       -0.0762
     13 C           2.0000   -2.5000    0.0000 C.3     1  UNL1       -0.0624
     14 C           3.7320   -2.5000    0.0000 C.3     1  UNL1       -0.0624
     15 C           6.3961   -1.0241    0.0000 C.3     1  UNL1       -0.0438
     16 C           2.8660    2.0000    0.0000 C.2     1  UNL1        0.1462
     17 H           3.7273   -1.1200    0.0000 H       1  UNL1        0.0352
     18 H           2.3291   -1.3100    0.0000 H       1  UNL1        0.0312
     19 H           3.7273    1.1200    0.0000 H       1  UNL1        0.0356
     20 H           2.8660   -2.6200    0.0000 H       1  UNL1        0.0298
     21 H           5.0196    1.5137    0.0000 H       1  UNL1        0.0274
     22 H           4.2214    1.5044    0.0000 H       1  UNL1        0.0274
     23 H           1.3894   -0.3923    0.0000 H       1  UNL1        0.0310
     24 H           1.7880   -1.0826    0.0000 H       1  UNL1        0.0310
     25 H           4.6188   -1.6546    0.0000 H       1  UNL1        0.0575
     26 H           6.1429    0.4147    0.0000 H       1  UNL1        0.0310
     27 H           5.7411    1.1045    0.0000 H       1  UNL1        0.0310
     28 H           1.4631    0.8100    0.0000 H       1  UNL1        0.0576
     29 H           1.6900   -1.9631    0.0000 H       1  UNL1        0.0232
     30 H           1.4631   -2.8100    0.0000 H       1  UNL1        0.0232
     31 H           2.3100   -3.0369    0.0000 H       1  UNL1        0.0232
     32 H           3.4220   -3.0369    0.0000 H       1  UNL1        0.0232
     33 H           4.2690   -2.8100    0.0000 H       1  UNL1        0.0232
     34 H           4.0420   -1.9631    0.0000 H       1  UNL1        0.0232
     35 H           6.0841   -1.5599    0.0000 H       1  UNL1        0.0274
     36 H           6.9319   -1.3362    0.0000 H       1  UNL1        0.0274
     37 H           6.7082   -0.4884    0.0000 H       1  UNL1        0.0274
     38 H           3.4030    2.3100    0.0000 H       1  UNL1        0.1078
@<TRIPOS>BOND
     1     1    16    2
     2     2     3    1
     3     2     4    1
     4     2     9    1
     5     2    17    1
     6     3     5    1
     7     3     7    1
     8     3    18    1
     9     4     6    1
    10     4     8    1
    11     4    19    1
    12     5    13    1
    13     5    14    1
    14     5    20    1
    15     6    10    1
    16     6    21    1
    17     6    22    1
    18     7    11    1
    19     7    23    1
    20     7    24    1
    21     8    11    2
    22     8    16    1
    23     9    12    2
    24     9    25    1
    25    10    12    1
    26    10    26    1
    27    10    27    1
    28    11    28    1
    29    12    15    1
    30    13    29    1
    31    13    30    1
    32    13    31    1
    33    14    32    1
    34    14    33    1
    35    14    34    1
    36    15    35    1
    37    15    36    1
    38    15    37    1
    39    16    38    1
