@<TRIPOS>MOLECULE
IMPHY017933
 16 17 0 0 0
SMALL
GASTEIGER

@<TRIPOS>ATOM
      1 O           2.5369   -1.0000    0.0000 O.3     1  UNL1       -0.2257
      2 C           6.0010    0.0000    0.0000 C.3     1  UNL1        0.0190
      3 C           5.1350   -0.5000    0.0000 C.3     1  UNL1        0.0068
      4 C           4.2690    0.0000    0.0000 C.3     1  UNL1        0.0327
      5 C           6.8950   -0.5347    0.0000 C.3     1  UNL1        0.0081
      6 C           6.0010    1.0000    0.0000 C.2     1  UNL1       -0.0274
      7 C           4.2690    1.0000    0.0000 C.3     1  UNL1        0.0281
      8 C           3.4030   -0.5000    0.0000 C.3     1  UNL1        0.1270
      9 C           6.0010   -1.0000    0.0000 C.3     1  UNL1        0.0044
     10 C           7.8010   -0.0208    0.0000 C.3     1  UNL1        0.0263
     11 C           5.1350    1.5000    0.0000 C.2     1  UNL1       -0.0303
     12 C           6.8834   -1.5346    0.0000 C.3     1  UNL1        0.0007
     13 C           6.8950    1.5346    0.0000 C.2     1  UNL1       -0.0092
     14 C           7.8010    1.0208    0.0000 C.2     1  UNL1       -0.0265
     15 C           2.9030    0.3660    0.0000 C.3     1  UNL1        0.0329
     16 C           3.9030   -1.3661    0.0000 C.3     1  UNL1        0.0329
@<TRIPOS>BOND
     1     1     8    1
     2     2     3    1
     3     2     5    1
     4     2     6    1
     5     2     9    1
     6     3     4    1
     7     4     7    1
     8     4     8    1
     9     5    10    1
    10     5    12    1
    11     6    11    2
    12     6    13    1
    13     7    11    1
    14     8    15    1
    15     8    16    1
    16    10    14    1
    17    13    14    2
