@<TRIPOS>MOLECULE
IMPHY003344
 28 30 0 0 0
SMALL
GASTEIGER

@<TRIPOS>ATOM
      1 O           8.2991    1.4508    0.0000 O.2     1  UNL1       -0.2686
      2 O           2.6720   -0.0608    0.0000 O.3     1  UNL1       -0.4950
      3 N           6.1767    0.8518    0.0000 N.ar    1  UNL1       -0.3503
      4 N           8.7040   -0.2724    0.0000 N.am    1  UNL1       -0.3098
      5 C           6.6767   -0.6871    0.0000 C.ar    1  UNL1       -0.0084
      6 C           7.3617   -1.4718    0.0000 C.3     1  UNL1       -0.0093
      7 C           5.6767   -0.6871    0.0000 C.ar    1  UNL1        0.0039
      8 C           6.9857    0.2640    0.0000 C.ar    1  UNL1        0.1060
      9 C           5.3677    0.2640    0.0000 C.ar    1  UNL1        0.0508
     10 C           8.3822   -1.2631    0.0000 C.3     1  UNL1        0.0160
     11 C           8.0011    0.4963    0.0000 C.2     1  UNL1        0.2607
     12 C           4.9917   -1.4718    0.0000 C.ar    1  UNL1       -0.0489
     13 C           4.3523    0.4963    0.0000 C.ar    1  UNL1        0.0040
     14 C           3.6493   -0.2724    0.0000 C.ar    1  UNL1        0.1221
     15 C           3.9712   -1.2631    0.0000 C.ar    1  UNL1       -0.0193
     16 C           2.0000   -0.8013    0.0000 C.3     1  UNL1        0.0788
     17 H           6.8317   -1.7936    0.0000 H       1  UNL1        0.0329
     18 H           7.5880   -2.0490    0.0000 H       1  UNL1        0.0329
     19 H           8.4006   -1.8828    0.0000 H       1  UNL1        0.0465
     20 H           8.9959   -1.3510    0.0000 H       1  UNL1        0.0465
     21 H           6.1767    1.4718    0.0000 H       1  UNL1        0.1660
     22 H           9.3100   -0.1412    0.0000 H       1  UNL1        0.1491
     23 H           5.1901   -2.0592    0.0000 H       1  UNL1        0.0625
     24 H           4.1675    1.0881    0.0000 H       1  UNL1        0.0675
     25 H           3.5581   -1.7254    0.0000 H       1  UNL1        0.0654
     26 H           1.5408   -0.3847    0.0000 H       1  UNL1        0.0660
     27 H           1.5834   -1.2605    0.0000 H       1  UNL1        0.0660
     28 H           2.4592   -1.2180    0.0000 H       1  UNL1        0.0660
@<TRIPOS>BOND
     1     1    11    2
     2     2    14    1
     3     2    16    1
     4     3     8   ar
     5     3     9   ar
     6     3    21    1
     7     4    10    1
     8     4    11   am
     9     4    22    1
    10     5     6    1
    11     5     7   ar
    12     5     8   ar
    13     6    10    1
    14     6    17    1
    15     6    18    1
    16     7     9   ar
    17     7    12   ar
    18     8    11    1
    19     9    13   ar
    20    10    19    1
    21    10    20    1
    22    12    15   ar
    23    12    23    1
    24    13    14   ar
    25    13    24    1
    26    14    15   ar
    27    15    25    1
    28    16    26    1
    29    16    27    1
    30    16    28    1
