@<TRIPOS>MOLECULE
IMPHY006873
 92 96 0 0 0
SMALL
GASTEIGER

@<TRIPOS>ATOM
      1 O           9.7101    0.8423    0.0000 O.3     1  UNL1       -0.3799
      2 O           6.1103    1.0464    0.0000 O.3     1  UNL1       -0.4551
      3 O          10.3245    1.9682    0.0000 O.3     1  UNL1       -0.4582
      4 O           6.3135   -0.4458    0.0000 O.3     1  UNL1       -0.4591
      5 O           8.4665   -3.7399    0.0000 O.3     1  UNL1       -0.4515
      6 O          11.0483   -3.1372    0.0000 O.3     1  UNL1       -0.4606
      7 O           6.0016    4.2992    0.0000 O.2     1  UNL1       -0.4708
      8 O           5.5998   -0.6087    0.0000 O.2     1  UNL1       -0.2479
      9 O          11.9124   -1.5923    0.0000 O.2     1  UNL1       -0.2508
     10 O          10.2955    3.7000    0.0000 O.2     1  UNL1       -0.2512
     11 O           6.8681   -4.2992    0.0000 O.2     1  UNL1       -0.2456
     12 O           6.6989   -2.1344    0.0000 O.2     1  UNL1       -0.2546
     13 O           4.1992    1.6360    0.0000 O.3     1  UNL1       -0.3803
     14 C           7.7989    1.4319    0.0000 C.3     1  UNL1        0.0515
     15 C           8.7545    1.1371    0.0000 C.3     1  UNL1        0.1332
     16 C           7.7866    2.4259    0.0000 C.3     1  UNL1        0.0025
     17 C           7.0659    0.7517    0.0000 C.3     1  UNL1        0.1493
     18 C           8.2440   -0.5180    0.0000 C.3     1  UNL1        0.0325
     19 C           9.3246    1.9515    0.0000 C.3     1  UNL1        0.1366
     20 C           7.2884   -0.2232    0.0000 C.3     1  UNL1        0.1474
     21 C           8.9770    0.1622    0.0000 C.2     1  UNL1       -0.0338
     22 C           8.7276    2.7463    0.0000 C.3     1  UNL1       -0.0049
     23 C           8.4665   -1.4929    0.0000 C.3     1  UNL1        0.0036
     24 C           6.8434    1.7266    0.0000 C.3     1  UNL1       -0.0524
     25 C           9.2483   -2.1164    0.0000 C.3     1  UNL1        0.0215
     26 C           6.9699    3.0029    0.0000 C.ar    1  UNL1       -0.0057
     27 C           9.2483   -3.1164    0.0000 C.3     1  UNL1        0.1488
     28 C           9.0900   -0.7111    0.0000 C.3     1  UNL1       -0.0550
     29 C           7.4916   -1.7154    0.0000 C.2     1  UNL1       -0.0703
     30 C           9.9326   -0.1326    0.0000 C.2     1  UNL1       -0.0962
     31 C          10.1423   -1.5818    0.0000 C.3     1  UNL1        0.0523
     32 C          10.1423   -3.6511    0.0000 C.3     1  UNL1        0.1321
     33 C           6.0230    2.6813    0.0000 C.ar    1  UNL1       -0.0205
     34 C           6.9567    4.0028    0.0000 C.ar    1  UNL1        0.0951
     35 C           9.2483   -4.1164    0.0000 C.3     1  UNL1       -0.0212
     36 C           7.0577   -2.6164    0.0000 C.2     1  UNL1        0.0192
     37 C           5.3772    0.3663    0.0000 C.2     1  UNL1        0.3367
     38 C          11.0483   -2.0956    0.0000 C.2     1  UNL1        0.3076
     39 C          10.8099    2.8424    0.0000 C.2     1  UNL1        0.3043
     40 C           7.4916   -3.5174    0.0000 C.2     1  UNL1        0.3323
     41 C           6.0188   -1.4014    0.0000 C.2     1  UNL1        0.2946
     42 C           5.4246    3.4825    0.0000 C.ar    1  UNL1        0.0919
     43 C           4.4217    0.6610    0.0000 C.3     1  UNL1        0.1541
     44 C          11.8098    2.8591    0.0000 C.3     1  UNL1        0.0332
     45 C           3.6886   -0.0191    0.0000 C.3     1  UNL1       -0.0076
     46 C           2.7330    0.2756    0.0000 C.3     1  UNL1       -0.0504
     47 C           3.9112   -0.9941    0.0000 C.3     1  UNL1       -0.0595
     48 C           2.0000   -0.4046    0.0000 C.3     1  UNL1       -0.0649
     49 H           7.8752    3.0395    0.0000 H       1  UNL1        0.0358
     50 H           7.5078    1.3561    0.0000 H       1  UNL1        0.0778
     51 H           7.6209   -1.0961    0.0000 H       1  UNL1        0.0392
     52 H           9.6155    1.4039    0.0000 H       1  UNL1        0.0767
     53 H           7.2652   -0.8428    0.0000 H       1  UNL1        0.0778
     54 H           9.2598    3.0645    0.0000 H       1  UNL1        0.0308
     55 H           8.4672    3.3090    0.0000 H       1  UNL1        0.0308
     56 H           7.0261    2.3191    0.0000 H       1  UNL1        0.0237
     57 H           6.2509    1.9094    0.0000 H       1  UNL1        0.0237
     58 H           6.6606    1.1342    0.0000 H       1  UNL1        0.0237
     59 H           9.3053   -1.2683    0.0000 H       1  UNL1        0.0354
     60 H          10.1646    1.2641    0.0000 H       1  UNL1        0.2108
     61 H           9.5747   -1.0977    0.0000 H       1  UNL1        0.0238
     62 H           9.4765   -0.2264    0.0000 H       1  UNL1        0.0238
     63 H           8.6052   -0.3245    0.0000 H       1  UNL1        0.0238
     64 H           7.1050   -1.2307    0.0000 H       1  UNL1        0.0580
     65 H          10.0706   -0.7370    0.0000 H       1  UNL1        0.0535
     66 H          10.3871    0.2891    0.0000 H       1  UNL1        0.0535
     67 H          10.5359   -1.1027    0.0000 H       1  UNL1        0.0382
     68 H           9.7377   -1.1120    0.0000 H       1  UNL1        0.0382
     69 H           9.7377   -4.1209    0.0000 H       1  UNL1        0.0738
     70 H          10.5359   -4.1301    0.0000 H       1  UNL1        0.0738
     71 H           5.8392    2.0892    0.0000 H       1  UNL1        0.0652
     72 H           7.4534    4.3738    0.0000 H       1  UNL1        0.1032
     73 H           8.6283   -4.1164    0.0000 H       1  UNL1        0.0269
     74 H           9.2483   -4.7364    0.0000 H       1  UNL1        0.0269
     75 H           9.8683   -4.1164    0.0000 H       1  UNL1        0.0269
     76 H           6.4377   -2.6164    0.0000 H       1  UNL1        0.0686
     77 H           5.4143   -1.5393    0.0000 H       1  UNL1        0.1512
     78 H           4.8046    3.4743    0.0000 H       1  UNL1        0.1029
     79 H           3.8292    0.8438    0.0000 H       1  UNL1        0.0713
     80 H          11.8201    2.2392    0.0000 H       1  UNL1        0.0342
     81 H          12.4297    2.8694    0.0000 H       1  UNL1        0.0342
     82 H          11.7994    3.4790    0.0000 H       1  UNL1        0.0342
     83 H           3.2341   -0.4409    0.0000 H       1  UNL1        0.0328
     84 H           3.6067    1.8187    0.0000 H       1  UNL1        0.2105
     85 H           3.0159    0.8273    0.0000 H       1  UNL1        0.0266
     86 H           2.2388    0.6500    0.0000 H       1  UNL1        0.0266
     87 H           3.3067   -1.1320    0.0000 H       1  UNL1        0.0233
     88 H           4.0491   -1.5985    0.0000 H       1  UNL1        0.0233
     89 H           4.5156   -0.8561    0.0000 H       1  UNL1        0.0233
     90 H           1.5783    0.0499    0.0000 H       1  UNL1        0.0230
     91 H           1.5455   -0.8263    0.0000 H       1  UNL1        0.0230
     92 H           2.4217   -0.8591    0.0000 H       1  UNL1        0.0230
@<TRIPOS>BOND
     1    15     1    1
     2     1    60    1
     3    17     2    1
     4     2    37    1
     5    19     3    1
     6     3    39    1
     7    20     4    1
     8     4    41    1
     9     5    27    1
    10     5    40    1
    11     6    32    1
    12     6    38    1
    13     7    34   ar
    14     7    42   ar
    15     8    37    2
    16     9    38    2
    17    10    39    2
    18    11    40    2
    19    12    41    2
    20    13    43    1
    21    13    84    1
    22    14    15    1
    23    14    16    1
    24    14    17    1
    25    14    24    1
    26    15    19    1
    27    15    21    1
    28    16    22    1
    29    16    26    1
    30    16    49    1
    31    17    20    1
    32    17    50    1
    33    18    20    1
    34    18    21    1
    35    18    23    1
    36    18    51    1
    37    19    22    1
    38    19    52    1
    39    20    53    1
    40    21    30    2
    41    22    54    1
    42    22    55    1
    43    23    25    1
    44    23    28    1
    45    23    29    1
    46    24    56    1
    47    24    57    1
    48    24    58    1
    49    25    27    1
    50    25    31    1
    51    25    59    1
    52    26    33   ar
    53    26    34   ar
    54    27    32    1
    55    27    35    1
    56    28    61    1
    57    28    62    1
    58    28    63    1
    59    29    36    2
    60    29    64    1
    61    30    65    1
    62    30    66    1
    63    31    38    1
    64    31    67    1
    65    31    68    1
    66    32    69    1
    67    32    70    1
    68    33    42   ar
    69    33    71    1
    70    34    72    1
    71    35    73    1
    72    35    74    1
    73    35    75    1
    74    36    40    1
    75    36    76    1
    76    37    43    1
    77    39    44    1
    78    41    77    1
    79    42    78    1
    80    43    45    1
    81    43    79    1
    82    44    80    1
    83    44    81    1
    84    44    82    1
    85    45    46    1
    86    45    47    1
    87    45    83    1
    88    46    48    1
    89    46    85    1
    90    46    86    1
    91    47    87    1
    92    47    88    1
    93    47    89    1
    94    48    90    1
    95    48    91    1
    96    48    92    1
