@<TRIPOS>MOLECULE
IMPHY017877
 30 30 0 0 0
SMALL
GASTEIGER

@<TRIPOS>ATOM
      1 O           2.0000    0.7500    0.0000 O.2     1  UNL1       -0.2965
      2 C           3.7320   -1.2500    0.0000 C.3     1  UNL1       -0.0346
      3 C           2.8660   -0.7500    0.0000 C.3     1  UNL1        0.0179
      4 C           4.5981   -0.7500    0.0000 C.3     1  UNL1       -0.0489
      5 C           3.7320    0.7500    0.0000 C.3     1  UNL1        0.0383
      6 C           4.5981    0.2500    0.0000 C.3     1  UNL1       -0.0395
      7 C           2.8660    0.2500    0.0000 C.2     1  UNL1        0.1434
      8 C           3.7320   -2.2500    0.0000 C.3     1  UNL1       -0.0618
      9 C           2.0000   -1.2500    0.0000 C.3     1  UNL1       -0.0554
     10 C           3.7320    1.7500    0.0000 C.2     1  UNL1       -0.0695
     11 C           4.5981    2.2500    0.0000 C.3     1  UNL1       -0.0434
     12 C           2.8660    2.2500    0.0000 C.2     1  UNL1       -0.0990
     13 H           4.2690   -1.5600    0.0000 H       1  UNL1        0.0305
     14 H           2.8660   -1.3700    0.0000 H       1  UNL1        0.0377
     15 H           4.8101   -1.3326    0.0000 H       1  UNL1        0.0268
     16 H           5.2087   -0.6423    0.0000 H       1  UNL1        0.0268
     17 H           4.2690    1.0600    0.0000 H       1  UNL1        0.0423
     18 H           5.2087    0.1423    0.0000 H       1  UNL1        0.0275
     19 H           4.8101    0.8326    0.0000 H       1  UNL1        0.0275
     20 H           3.1120   -2.2500    0.0000 H       1  UNL1        0.0233
     21 H           3.7320   -2.8700    0.0000 H       1  UNL1        0.0233
     22 H           4.3520   -2.2500    0.0000 H       1  UNL1        0.0233
     23 H           1.6900   -0.7131    0.0000 H       1  UNL1        0.0236
     24 H           1.4631   -1.5600    0.0000 H       1  UNL1        0.0236
     25 H           2.3100   -1.7869    0.0000 H       1  UNL1        0.0236
     26 H           4.9081    1.7131    0.0000 H       1  UNL1        0.0274
     27 H           5.1350    2.5600    0.0000 H       1  UNL1        0.0274
     28 H           4.2881    2.7869    0.0000 H       1  UNL1        0.0274
     29 H           2.8660    2.8700    0.0000 H       1  UNL1        0.0535
     30 H           2.3291    1.9400    0.0000 H       1  UNL1        0.0535
@<TRIPOS>BOND
     1     1     7    2
     2     2     3    1
     3     2     4    1
     4     2     8    1
     5     2    13    1
     6     3     7    1
     7     3     9    1
     8     3    14    1
     9     4     6    1
    10     4    15    1
    11     4    16    1
    12     5     6    1
    13     5     7    1
    14     5    10    1
    15     5    17    1
    16     6    18    1
    17     6    19    1
    18     8    20    1
    19     8    21    1
    20     8    22    1
    21     9    23    1
    22     9    24    1
    23     9    25    1
    24    10    11    1
    25    10    12    2
    26    11    26    1
    27    11    27    1
    28    11    28    1
    29    12    29    1
    30    12    30    1
