@<TRIPOS>MOLECULE
IMPHY007194
 42 42 0 0 0
SMALL
GASTEIGER

@<TRIPOS>ATOM
      1 O           8.0622    0.5000    0.0000 O.3     1  UNL1       -0.4609
      2 O           4.5981   -1.5000    0.0000 O.3     1  UNL1       -0.4609
      3 O           6.3301    0.5000    0.0000 O.2     1  UNL1       -0.2449
      4 O           5.4641    0.0000    0.0000 O.2     1  UNL1       -0.2449
      5 C           2.8660   -1.5000    0.0000 C.3     1  UNL1       -0.0123
      6 C           8.9282    2.0000    0.0000 C.3     1  UNL1       -0.0123
      7 C           3.7320   -1.0000    0.0000 C.3     1  UNL1        0.0951
      8 C           8.0622    1.5000    0.0000 C.3     1  UNL1        0.0951
      9 C           2.0000   -1.0000    0.0000 C.3     1  UNL1       -0.0596
     10 C           2.8660   -2.5000    0.0000 C.3     1  UNL1       -0.0596
     11 C           8.9282    3.0000    0.0000 C.3     1  UNL1       -0.0596
     12 C           9.7942    1.5000    0.0000 C.3     1  UNL1       -0.0596
     13 C           7.1962   -1.0000    0.0000 C.ar    1  UNL1        0.0729
     14 C           6.3301   -1.5000    0.0000 C.ar    1  UNL1        0.0729
     15 C           7.1962    0.0000    0.0000 C.2     1  UNL1        0.3400
     16 C           5.4641   -1.0000    0.0000 C.2     1  UNL1        0.3400
     17 C           8.0622   -1.5000    0.0000 C.ar    1  UNL1       -0.0470
     18 C           6.3301   -2.5000    0.0000 C.ar    1  UNL1       -0.0470
     19 C           8.0622   -2.5000    0.0000 C.ar    1  UNL1       -0.0609
     20 C           7.1962   -3.0000    0.0000 C.ar    1  UNL1       -0.0609
     21 H           9.4651    2.3100    0.0000 H       1  UNL1        0.0328
     22 H           2.8660   -0.8800    0.0000 H       1  UNL1        0.0328
     23 H           7.8501    2.0826    0.0000 H       1  UNL1        0.0700
     24 H           7.4516    1.3923    0.0000 H       1  UNL1        0.0700
     25 H           4.1306   -0.5251    0.0000 H       1  UNL1        0.0700
     26 H           3.3335   -0.5251    0.0000 H       1  UNL1        0.0700
     27 H           2.3100   -0.4631    0.0000 H       1  UNL1        0.0233
     28 H           1.4631   -0.6900    0.0000 H       1  UNL1        0.0233
     29 H           9.4842    0.9631    0.0000 H       1  UNL1        0.0233
     30 H          10.3312    1.1900    0.0000 H       1  UNL1        0.0233
     31 H          10.1042    2.0369    0.0000 H       1  UNL1        0.0233
     32 H           9.5482    3.0000    0.0000 H       1  UNL1        0.0233
     33 H           8.9282    3.6200    0.0000 H       1  UNL1        0.0233
     34 H           8.3082    3.0000    0.0000 H       1  UNL1        0.0233
     35 H           2.2460   -2.5000    0.0000 H       1  UNL1        0.0233
     36 H           2.8660   -3.1200    0.0000 H       1  UNL1        0.0233
     37 H           3.4860   -2.5000    0.0000 H       1  UNL1        0.0233
     38 H           1.6900   -1.5369    0.0000 H       1  UNL1        0.0233
     39 H           5.7932   -2.8100    0.0000 H       1  UNL1        0.0626
     40 H           8.5991   -1.1900    0.0000 H       1  UNL1        0.0626
     41 H           7.1962   -3.6200    0.0000 H       1  UNL1        0.0618
     42 H           8.5991   -2.8100    0.0000 H       1  UNL1        0.0618
@<TRIPOS>BOND
     1     1     8    1
     2     1    15    1
     3     2     7    1
     4     2    16    1
     5     3    15    2
     6     4    16    2
     7     5     7    1
     8     5     9    1
     9     5    10    1
    10     5    22    1
    11     6     8    1
    12     6    11    1
    13     6    12    1
    14     6    21    1
    15     7    25    1
    16     7    26    1
    17     8    23    1
    18     8    24    1
    19     9    27    1
    20     9    28    1
    21     9    38    1
    22    10    35    1
    23    10    36    1
    24    10    37    1
    25    11    32    1
    26    11    33    1
    27    11    34    1
    28    12    29    1
    29    12    30    1
    30    12    31    1
    31    13    14   ar
    32    13    15    1
    33    13    17   ar
    34    14    16    1
    35    14    18   ar
    36    17    19   ar
    37    17    40    1
    38    18    20   ar
    39    18    39    1
    40    19    20   ar
    41    19    42    1
    42    20    41    1
