@<TRIPOS>MOLECULE
IMPHY005312
 62 64 0 0 0
SMALL
GASTEIGER

@<TRIPOS>ATOM
      1 O           5.1350    1.7500    0.0000 O.3     1  UNL1       -0.3312
      2 O           5.1350   -1.2500    0.0000 O.3     1  UNL1       -0.4523
      3 O           6.8671    1.7500    0.0000 O.3     1  UNL1       -0.4605
      4 O           3.4030   -0.2500    0.0000 O.3     1  UNL1       -0.3854
      5 O           6.8671   -0.2500    0.0000 O.3     1  UNL1       -0.3818
      6 O           3.4030    2.7500    0.0000 O.3     1  UNL1       -0.3924
      7 O           3.4030   -1.2500    0.0000 O.2     1  UNL1       -0.2449
      8 O           6.8671    5.7500    0.0000 O.3     1  UNL1       -0.5065
      9 O           6.0010   -4.7500    0.0000 O.3     1  UNL1       -0.5032
     10 O           2.5369   -4.7500    0.0000 O.3     1  UNL1       -0.5032
     11 O           4.2690   -5.7500    0.0000 O.3     1  UNL1       -0.5009
     12 C           5.1350   -0.2500    0.0000 C.3     1  UNL1        0.1631
     13 C           4.2690    0.2500    0.0000 C.3     1  UNL1        0.1230
     14 C           6.0010    0.2500    0.0000 C.3     1  UNL1        0.1564
     15 C           4.2690    1.2500    0.0000 C.3     1  UNL1        0.1151
     16 C           6.0010    1.2500    0.0000 C.3     1  UNL1        0.2319
     17 C           3.4030    1.7500    0.0000 C.3     1  UNL1        0.0731
     18 C           6.8671    2.7500    0.0000 C.ar    1  UNL1        0.1279
     19 C           7.7331    3.2500    0.0000 C.ar    1  UNL1        0.0004
     20 C           8.5991    2.7500    0.0000 C.3     1  UNL1       -0.0179
     21 C           4.2690   -1.7500    0.0000 C.2     1  UNL1        0.3398
     22 C           6.0010    3.2500    0.0000 C.ar    1  UNL1       -0.0132
     23 C           7.7331    4.2500    0.0000 C.ar    1  UNL1       -0.0130
     24 C           6.0010    4.2500    0.0000 C.ar    1  UNL1       -0.0056
     25 C           4.2690   -2.7500    0.0000 C.ar    1  UNL1        0.0661
     26 C           6.8671    4.7500    0.0000 C.ar    1  UNL1        0.1202
     27 C           9.4651    3.2500    0.0000 C.3     1  UNL1       -0.0585
     28 C           8.5991    1.7500    0.0000 C.3     1  UNL1       -0.0585
     29 C           5.1350    4.7500    0.0000 C.3     1  UNL1       -0.0361
     30 C           3.4030   -3.2500    0.0000 C.ar    1  UNL1       -0.0023
     31 C           5.1350   -3.2500    0.0000 C.ar    1  UNL1       -0.0023
     32 C           5.1350   -4.2500    0.0000 C.ar    1  UNL1        0.1628
     33 C           3.4030   -4.2500    0.0000 C.ar    1  UNL1        0.1628
     34 C           4.2690   -4.7500    0.0000 C.ar    1  UNL1        0.2006
     35 H           5.6720   -0.5600    0.0000 H       1  UNL1        0.0790
     36 H           4.2690   -0.3700    0.0000 H       1  UNL1        0.0658
     37 H           6.5380    0.5600    0.0000 H       1  UNL1        0.0694
     38 H           4.2690    1.8700    0.0000 H       1  UNL1        0.0647
     39 H           6.0010    1.8700    0.0000 H       1  UNL1        0.1085
     40 H           2.7924    1.8577    0.0000 H       1  UNL1        0.0584
     41 H           3.1909    1.1674    0.0000 H       1  UNL1        0.0584
     42 H           2.8660    0.0600    0.0000 H       1  UNL1        0.2101
     43 H           7.4040    0.0600    0.0000 H       1  UNL1        0.2102
     44 H           8.5991    3.3700    0.0000 H       1  UNL1        0.0345
     45 H           2.8660    3.0600    0.0000 H       1  UNL1        0.2095
     46 H           5.4641    2.9400    0.0000 H       1  UNL1        0.0658
     47 H           8.2700    4.5600    0.0000 H       1  UNL1        0.0658
     48 H           9.7751    2.7131    0.0000 H       1  UNL1        0.0235
     49 H          10.0021    3.5600    0.0000 H       1  UNL1        0.0235
     50 H           9.1551    3.7869    0.0000 H       1  UNL1        0.0235
     51 H           7.9791    1.7500    0.0000 H       1  UNL1        0.0235
     52 H           8.5991    1.1300    0.0000 H       1  UNL1        0.0235
     53 H           9.2191    1.7500    0.0000 H       1  UNL1        0.0235
     54 H           5.4450    5.2869    0.0000 H       1  UNL1        0.0279
     55 H           4.5981    5.0600    0.0000 H       1  UNL1        0.0279
     56 H           4.8250    4.2131    0.0000 H       1  UNL1        0.0279
     57 H           2.8660   -2.9400    0.0000 H       1  UNL1        0.0663
     58 H           5.6720   -2.9400    0.0000 H       1  UNL1        0.0663
     59 H           7.4040    6.0600    0.0000 H       1  UNL1        0.2921
     60 H           6.5380   -4.4400    0.0000 H       1  UNL1        0.2923
     61 H           2.0000   -4.4400    0.0000 H       1  UNL1        0.2923
     62 H           3.7320   -6.0600    0.0000 H       1  UNL1        0.2924
@<TRIPOS>BOND
     1     1    15    1
     2     1    16    1
     3    12     2    1
     4     2    21    1
     5    16     3    1
     6     3    18    1
     7    13     4    1
     8     4    42    1
     9    14     5    1
    10     5    43    1
    11     6    17    1
    12     6    45    1
    13     7    21    2
    14     8    26    1
    15     8    59    1
    16     9    32    1
    17     9    60    1
    18    10    33    1
    19    10    61    1
    20    11    34    1
    21    11    62    1
    22    12    13    1
    23    12    14    1
    24    12    35    1
    25    13    15    1
    26    13    36    1
    27    14    16    1
    28    14    37    1
    29    15    17    1
    30    15    38    1
    31    16    39    1
    32    17    40    1
    33    17    41    1
    34    18    19   ar
    35    18    22   ar
    36    19    20    1
    37    19    23   ar
    38    20    27    1
    39    20    28    1
    40    20    44    1
    41    21    25    1
    42    22    24   ar
    43    22    46    1
    44    23    26   ar
    45    23    47    1
    46    24    26   ar
    47    24    29    1
    48    25    30   ar
    49    25    31   ar
    50    27    48    1
    51    27    49    1
    52    27    50    1
    53    28    51    1
    54    28    52    1
    55    28    53    1
    56    29    54    1
    57    29    55    1
    58    29    56    1
    59    30    33   ar
    60    30    57    1
    61    31    32   ar
    62    31    58    1
    63    32    34   ar
    64    33    34   ar
