@<TRIPOS>MOLECULE
IMPHY014606
 29 31 0 0 0
SMALL
GASTEIGER

@<TRIPOS>ATOM
      1 O           8.5210   -1.8137    0.0000 O.3     1  UNL1       -0.3841
      2 O           6.3981    1.9416    0.0000 O.2     1  UNL1       -0.2669
      3 O           2.8680    0.9657    0.0000 O.3     1  UNL1       -0.4951
      4 N           7.2641    0.4416    0.0000 N.ar    1  UNL1       -0.2940
      5 N           6.3981   -1.0584    0.0000 N.ar    1  UNL1       -0.2308
      6 C           8.7939   -0.0584    0.0000 C.3     1  UNL1       -0.0016
      7 C           8.2103   -0.8632    0.0000 C.3     1  UNL1        0.1145
      8 C           8.2103    0.7463    0.0000 C.3     1  UNL1        0.0306
      9 C           7.2641   -0.5584    0.0000 C.ar    1  UNL1        0.1418
     10 C           6.3981    0.9416    0.0000 C.ar    1  UNL1        0.2620
     11 C           5.5320    0.4416    0.0000 C.ar    1  UNL1        0.0683
     12 C           5.5320   -0.5584    0.0000 C.ar    1  UNL1        0.0785
     13 C           4.6381    0.9762    0.0000 C.ar    1  UNL1       -0.0056
     14 C           4.6381   -1.0931    0.0000 C.ar    1  UNL1       -0.0320
     15 C           3.7320    0.4624    0.0000 C.ar    1  UNL1        0.1210
     16 C           3.7320   -0.5793    0.0000 C.ar    1  UNL1       -0.0179
     17 C           2.0000    0.4690    0.0000 C.3     1  UNL1        0.0788
     18 H           9.2548   -0.4732    0.0000 H       1  UNL1        0.0312
     19 H           9.2548    0.3563    0.0000 H       1  UNL1        0.0312
     20 H           8.8228   -0.9594    0.0000 H       1  UNL1        0.0675
     21 H           8.7477    1.0555    0.0000 H       1  UNL1        0.0494
     22 H           7.9593    1.3132    0.0000 H       1  UNL1        0.0494
     23 H           9.1276   -1.9416    0.0000 H       1  UNL1        0.2104
     24 H           4.6453    1.5962    0.0000 H       1  UNL1        0.0662
     25 H           4.6453   -1.7131    0.0000 H       1  UNL1        0.0640
     26 H           3.1963   -0.8913    0.0000 H       1  UNL1        0.0655
     27 H           1.6921    1.0072    0.0000 H       1  UNL1        0.0660
     28 H           1.4619    0.1611    0.0000 H       1  UNL1        0.0660
     29 H           2.3079   -0.0691    0.0000 H       1  UNL1        0.0660
@<TRIPOS>BOND
     1     7     1    1
     2     1    23    1
     3     2    10    2
     4     3    15    1
     5     3    17    1
     6     4     8    1
     7     4     9   ar
     8     4    10   ar
     9     5     9   ar
    10     5    12   ar
    11     6     7    1
    12     6     8    1
    13     6    18    1
    14     6    19    1
    15     7     9    1
    16     7    20    1
    17     8    21    1
    18     8    22    1
    19    10    11   ar
    20    11    12   ar
    21    11    13   ar
    22    12    14   ar
    23    13    15   ar
    24    13    24    1
    25    14    16   ar
    26    14    25    1
    27    15    16   ar
    28    16    26    1
    29    17    27    1
    30    17    28    1
    31    17    29    1
