@<TRIPOS>MOLECULE
IMPHY014275
 33 34 0 0 0
SMALL
GASTEIGER

@<TRIPOS>ATOM
      1 O           7.2566    1.9615    0.0000 O.3     1  UNL1       -0.4795
      2 O           5.6103    2.4996    0.0000 O.2     1  UNL1       -0.2492
      3 N           6.6353    0.0604    0.0000 N.3     1  UNL1       -0.2958
      4 N           4.6783   -1.9615    0.0000 N.ar    1  UNL1       -0.3604
      5 C           4.9889    0.5985    0.0000 C.3     1  UNL1        0.0003
      6 C           5.9674    0.8047    0.0000 C.3     1  UNL1        0.1118
      7 C           4.6783   -0.3520    0.0000 C.ar    1  UNL1       -0.0203
      8 C           3.7320   -0.6567    0.0000 C.ar    1  UNL1        0.0029
      9 C           3.7320   -1.6567    0.0000 C.ar    1  UNL1        0.0467
     10 C           5.2619   -1.1567    0.0000 C.ar    1  UNL1        0.0060
     11 C           6.2781    1.7552    0.0000 C.2     1  UNL1        0.3224
     12 C           2.8660   -0.1567    0.0000 C.ar    1  UNL1       -0.0523
     13 C           7.6138    0.2666    0.0000 C.3     1  UNL1       -0.0123
     14 C           6.3246   -0.8901    0.0000 C.3     1  UNL1       -0.0123
     15 C           2.8660   -2.1567    0.0000 C.ar    1  UNL1       -0.0378
     16 C           2.0000   -0.6567    0.0000 C.ar    1  UNL1       -0.0611
     17 C           2.0000   -1.6567    0.0000 C.ar    1  UNL1       -0.0598
     18 H           4.9684    1.2182    0.0000 H       1  UNL1        0.0334
     19 H           4.3751    0.6859    0.0000 H       1  UNL1        0.0334
     20 H           5.7748    0.2154    0.0000 H       1  UNL1        0.0581
     21 H           5.8819   -1.1567    0.0000 H       1  UNL1        0.0810
     22 H           4.8709   -2.5508    0.0000 H       1  UNL1        0.1653
     23 H           2.8660    0.4633    0.0000 H       1  UNL1        0.0624
     24 H           7.7416   -0.3400    0.0000 H       1  UNL1        0.0391
     25 H           8.2205    0.3945    0.0000 H       1  UNL1        0.0391
     26 H           7.4859    0.8733    0.0000 H       1  UNL1        0.0391
     27 H           5.7353   -0.6975    0.0000 H       1  UNL1        0.0391
     28 H           6.1320   -1.4794    0.0000 H       1  UNL1        0.0391
     29 H           6.9139   -1.0827    0.0000 H       1  UNL1        0.0391
     30 H           2.8660   -2.7767    0.0000 H       1  UNL1        0.0638
     31 H           1.4631   -0.3467    0.0000 H       1  UNL1        0.0618
     32 H           1.4631   -1.9667    0.0000 H       1  UNL1        0.0618
     33 H           7.4492    2.5508    0.0000 H       1  UNL1        0.2951
@<TRIPOS>BOND
     1     1    11    1
     2     1    33    1
     3     2    11    2
     4     6     3    1
     5     3    13    1
     6     3    14    1
     7     4     9   ar
     8     4    10   ar
     9     4    22    1
    10     5     6    1
    11     5     7    1
    12     5    18    1
    13     5    19    1
    14     6    11    1
    15     6    20    1
    16     7     8   ar
    17     7    10   ar
    18     8     9   ar
    19     8    12   ar
    20     9    15   ar
    21    10    21    1
    22    12    16   ar
    23    12    23    1
    24    13    24    1
    25    13    25    1
    26    13    26    1
    27    14    27    1
    28    14    28    1
    29    14    29    1
    30    15    17   ar
    31    15    30    1
    32    16    17   ar
    33    16    31    1
    34    17    32    1
