@<TRIPOS>MOLECULE
IMPHY005491
 81 86 0 0 0
SMALL
GASTEIGER

@<TRIPOS>ATOM
      1 O          11.3900    2.3583    0.0000 O.3     1  UNL1       -0.3876
      2 O          13.9141    0.8485    0.0000 O.3     1  UNL1       -0.3911
      3 O           6.0010    3.4314    0.0000 O.3     1  UNL1       -0.3480
      4 O          13.5826   -2.2128    0.0000 O.3     1  UNL1       -0.4571
      5 O           4.2690    3.4314    0.0000 O.3     1  UNL1       -0.3456
      6 O          12.3199   -3.4702    0.0000 O.2     1  UNL1       -0.2456
      7 O           4.2690    0.4314    0.0000 O.3     1  UNL1       -0.3890
      8 O           2.5369    1.4314    0.0000 O.3     1  UNL1       -0.3867
      9 C          11.3862    1.3583    0.0000 C.3     1  UNL1        0.0775
     10 C          10.5221    1.8616    0.0000 C.3     1  UNL1       -0.0082
     11 C           9.6541    1.3649    0.0000 C.3     1  UNL1       -0.0299
     12 C          11.3823    0.3583    0.0000 C.3     1  UNL1        0.0060
     13 C           8.7461    1.8753    0.0000 C.3     1  UNL1       -0.0259
     14 C           8.7421    2.9169    0.0000 C.3     1  UNL1       -0.0330
     15 C          12.3274    0.0499    0.0000 C.3     1  UNL1        0.0179
     16 C           9.6503    0.3650    0.0000 C.3     1  UNL1       -0.0488
     17 C          10.5144   -0.1384    0.0000 C.3     1  UNL1       -0.0441
     18 C          12.3336    1.6594    0.0000 C.3     1  UNL1        0.0035
     19 C          10.5422    2.9030    0.0000 C.3     1  UNL1       -0.0470
     20 C          12.9141    0.8524    0.0000 C.3     1  UNL1        0.0651
     21 C           9.6462    3.4342    0.0000 C.3     1  UNL1       -0.0493
     22 C           7.8171    1.3148    0.0000 C.3     1  UNL1       -0.0448
     23 C           7.8088    3.4702    0.0000 C.3     1  UNL1       -0.0232
     24 C          11.3785   -0.6417    0.0000 C.3     1  UNL1       -0.0563
     25 C           8.7500    0.8753    0.0000 C.3     1  UNL1       -0.0590
     26 C           6.8712    1.8464    0.0000 C.3     1  UNL1       -0.0260
     27 C           6.8671    2.9314    0.0000 C.3     1  UNL1        0.0620
     28 C          12.6344   -0.9018    0.0000 C.2     1  UNL1       -0.0198
     29 C          13.5847   -1.2128    0.0000 C.3     1  UNL1        0.1148
     30 C          12.0448   -1.7096    0.0000 C.2     1  UNL1        0.0253
     31 C           5.1350    2.9314    0.0000 C.3     1  UNL1        0.1624
     32 C          12.6309   -2.5198    0.0000 C.2     1  UNL1        0.3323
     33 C           5.1350    1.9314    0.0000 C.3     1  UNL1        0.0270
     34 C           4.2690    1.4314    0.0000 C.3     1  UNL1        0.0881
     35 C           3.4030    2.9314    0.0000 C.3     1  UNL1        0.0871
     36 C           3.4030    1.9314    0.0000 C.3     1  UNL1        0.1070
     37 C           2.5369    3.4314    0.0000 C.3     1  UNL1       -0.0361
     38 H          11.2631    2.2781    0.0000 H       1  UNL1        0.0331
     39 H          10.3886    0.9371    0.0000 H       1  UNL1        0.0310
     40 H           8.7486    3.7669    0.0000 H       1  UNL1        0.0307
     41 H          12.9395   -0.0487    0.0000 H       1  UNL1        0.0378
     42 H           9.0401    0.4750    0.0000 H       1  UNL1        0.0268
     43 H           9.4360   -0.2168    0.0000 H       1  UNL1        0.0268
     44 H          10.1140   -0.6118    0.0000 H       1  UNL1        0.0272
     45 H          10.9111   -0.6149    0.0000 H       1  UNL1        0.0272
     46 H          12.8721    1.9665    0.0000 H       1  UNL1        0.0318
     47 H          12.0847    2.2272    0.0000 H       1  UNL1        0.0318
     48 H          11.1509    2.7852    0.0000 H       1  UNL1        0.0269
     49 H          10.7624    3.4826    0.0000 H       1  UNL1        0.0269
     50 H          13.1979    1.4036    0.0000 H       1  UNL1        0.0600
     51 H          10.0489    3.9056    0.0000 H       1  UNL1        0.0268
     52 H           9.2507    3.9118    0.0000 H       1  UNL1        0.0268
     53 H           7.4253    0.8343    0.0000 H       1  UNL1        0.0271
     54 H           8.2235    0.8466    0.0000 H       1  UNL1        0.0271
     55 H           8.2116    3.9416    0.0000 H       1  UNL1        0.0293
     56 H           7.4133    3.9477    0.0000 H       1  UNL1        0.0293
     57 H          10.7585   -0.6393    0.0000 H       1  UNL1        0.0236
     58 H          11.3761   -1.2617    0.0000 H       1  UNL1        0.0236
     59 H          11.9985   -0.6441    0.0000 H       1  UNL1        0.0236
     60 H           8.1299    0.8729    0.0000 H       1  UNL1        0.0235
     61 H           8.7523    0.2553    0.0000 H       1  UNL1        0.0235
     62 H           9.3699    0.8777    0.0000 H       1  UNL1        0.0235
     63 H           6.2600    1.9501    0.0000 H       1  UNL1        0.0290
     64 H           6.6644    1.2619    0.0000 H       1  UNL1        0.0290
     65 H           6.8683    3.5514    0.0000 H       1  UNL1        0.0597
     66 H          11.9282    2.6662    0.0000 H       1  UNL1        0.2102
     67 H          14.2261    1.3843    0.0000 H       1  UNL1        0.2098
     68 H          14.2012   -1.2790    0.0000 H       1  UNL1        0.0746
     69 H          13.7149   -0.6067    0.0000 H       1  UNL1        0.0746
     70 H          11.4248   -1.7083    0.0000 H       1  UNL1        0.0689
     71 H           5.1350    3.5514    0.0000 H       1  UNL1        0.0910
     72 H           5.3471    1.3488    0.0000 H       1  UNL1        0.0340
     73 H           5.7456    2.0390    0.0000 H       1  UNL1        0.0340
     74 H           4.8059    1.1214    0.0000 H       1  UNL1        0.0621
     75 H           3.4030    3.5514    0.0000 H       1  UNL1        0.0621
     76 H           3.4030    1.3114    0.0000 H       1  UNL1        0.0645
     77 H           2.8469    3.9683    0.0000 H       1  UNL1        0.0255
     78 H           2.0000    3.7414    0.0000 H       1  UNL1        0.0255
     79 H           2.2269    2.8944    0.0000 H       1  UNL1        0.0255
     80 H           3.7320    0.1214    0.0000 H       1  UNL1        0.2099
     81 H           2.0000    1.7414    0.0000 H       1  UNL1        0.2100
@<TRIPOS>BOND
     1     9     1    1
     2     1    66    1
     3    20     2    1
     4     2    67    1
     5    27     3    1
     6    31     3    1
     7     4    29    1
     8     4    32    1
     9     5    31    1
    10     5    35    1
    11     6    32    2
    12    34     7    1
    13     7    80    1
    14    36     8    1
    15     8    81    1
    16     9    10    1
    17     9    12    1
    18     9    18    1
    19    10    11    1
    20    10    19    1
    21    10    38    1
    22    11    13    1
    23    11    16    1
    24    11    39    1
    25    12    15    1
    26    12    17    1
    27    12    24    1
    28    13    14    1
    29    13    22    1
    30    13    25    1
    31    14    21    1
    32    14    23    1
    33    14    40    1
    34    15    20    1
    35    15    28    1
    36    15    41    1
    37    16    17    1
    38    16    42    1
    39    16    43    1
    40    17    44    1
    41    17    45    1
    42    18    20    1
    43    18    46    1
    44    18    47    1
    45    19    21    1
    46    19    48    1
    47    19    49    1
    48    20    50    1
    49    21    51    1
    50    21    52    1
    51    22    26    1
    52    22    53    1
    53    22    54    1
    54    23    27    1
    55    23    55    1
    56    23    56    1
    57    24    57    1
    58    24    58    1
    59    24    59    1
    60    25    60    1
    61    25    61    1
    62    25    62    1
    63    26    27    1
    64    26    63    1
    65    26    64    1
    66    27    65    1
    67    28    29    1
    68    28    30    2
    69    29    68    1
    70    29    69    1
    71    30    32    1
    72    30    70    1
    73    31    33    1
    74    31    71    1
    75    33    34    1
    76    33    72    1
    77    33    73    1
    78    34    36    1
    79    34    74    1
    80    35    36    1
    81    35    37    1
    82    35    75    1
    83    36    76    1
    84    37    77    1
    85    37    78    1
    86    37    79    1
