@<TRIPOS>MOLECULE
IMPHY013573
 45 46 0 0 0
SMALL
GASTEIGER

@<TRIPOS>ATOM
      1 O           2.6200    2.1830    0.0000 O.3     1  UNL1       -0.3886
      2 C           3.9860   -0.1830    0.0000 C.3     1  UNL1       -0.0199
      3 C           3.9860    0.8170    0.0000 C.3     1  UNL1       -0.0062
      4 C           3.1200   -0.6830    0.0000 C.3     1  UNL1       -0.0326
      5 C           3.1200    1.3170    0.0000 C.3     1  UNL1        0.0667
      6 C           2.2540   -0.1830    0.0000 C.3     1  UNL1       -0.0469
      7 C           4.8800   -0.7177    0.0000 C.3     1  UNL1       -0.0260
      8 C           2.2540    0.8170    0.0000 C.3     1  UNL1       -0.0237
      9 C           4.8800    1.3516    0.0000 C.3     1  UNL1       -0.0434
     10 C           3.1200   -1.6830    0.0000 C.3     1  UNL1       -0.0434
     11 C           3.9860   -1.1830    0.0000 C.3     1  UNL1       -0.0587
     12 C           5.7860    0.8378    0.0000 C.3     1  UNL1       -0.0316
     13 C           5.7860   -0.2038    0.0000 C.2     1  UNL1       -0.0761
     14 C           3.6200    2.1830    0.0000 C.3     1  UNL1       -0.0358
     15 C           2.2540   -2.1830    0.0000 C.3     1  UNL1       -0.0624
     16 C           3.9860   -2.1830    0.0000 C.3     1  UNL1       -0.0624
     17 C           6.6501   -0.7072    0.0000 C.2     1  UNL1       -0.0994
     18 H           3.9812    1.4370    0.0000 H       1  UNL1        0.0334
     19 H           3.6569   -0.9930    0.0000 H       1  UNL1        0.0309
     20 H           1.6434   -0.0754    0.0000 H       1  UNL1        0.0269
     21 H           2.0419   -0.7656    0.0000 H       1  UNL1        0.0269
     22 H           4.4754   -1.1875    0.0000 H       1  UNL1        0.0315
     23 H           5.2736   -1.1967    0.0000 H       1  UNL1        0.0315
     24 H           2.0419    1.3996    0.0000 H       1  UNL1        0.0293
     25 H           1.6434    0.7093    0.0000 H       1  UNL1        0.0293
     26 H           5.2736    1.8307    0.0000 H       1  UNL1        0.0272
     27 H           4.4754    1.8214    0.0000 H       1  UNL1        0.0272
     28 H           2.5831   -1.3730    0.0000 H       1  UNL1        0.0298
     29 H           3.3660   -1.1830    0.0000 H       1  UNL1        0.0235
     30 H           3.9860   -1.8030    0.0000 H       1  UNL1        0.0235
     31 H           4.6060   -1.1830    0.0000 H       1  UNL1        0.0235
     32 H           6.3969    0.7317    0.0000 H       1  UNL1        0.0310
     33 H           5.9951    1.4215    0.0000 H       1  UNL1        0.0310
     34 H           4.1569    1.8730    0.0000 H       1  UNL1        0.0257
     35 H           3.9300    2.7200    0.0000 H       1  UNL1        0.0257
     36 H           3.0831    2.4930    0.0000 H       1  UNL1        0.0257
     37 H           2.0000    2.1830    0.0000 H       1  UNL1        0.2102
     38 H           1.9440   -1.6461    0.0000 H       1  UNL1        0.0232
     39 H           1.7170   -2.4930    0.0000 H       1  UNL1        0.0232
     40 H           2.5640   -2.7200    0.0000 H       1  UNL1        0.0232
     41 H           3.6760   -2.7200    0.0000 H       1  UNL1        0.0232
     42 H           4.5230   -2.4930    0.0000 H       1  UNL1        0.0232
     43 H           4.2960   -1.6461    0.0000 H       1  UNL1        0.0232
     44 H           6.6477   -1.3272    0.0000 H       1  UNL1        0.0534
     45 H           7.1882   -0.3992    0.0000 H       1  UNL1        0.0534
@<TRIPOS>BOND
     1     5     1    1
     2     1    37    1
     3     2     3    1
     4     2     4    1
     5     2     7    1
     6     2    11    1
     7     3     5    1
     8     3     9    1
     9     3    18    1
    10     4     6    1
    11     4    10    1
    12     4    19    1
    13     5     8    1
    14     5    14    1
    15     6     8    1
    16     6    20    1
    17     6    21    1
    18     7    13    1
    19     7    22    1
    20     7    23    1
    21     8    24    1
    22     8    25    1
    23     9    12    1
    24     9    26    1
    25     9    27    1
    26    10    15    1
    27    10    16    1
    28    10    28    1
    29    11    29    1
    30    11    30    1
    31    11    31    1
    32    12    13    1
    33    12    32    1
    34    12    33    1
    35    13    17    2
    36    14    34    1
    37    14    35    1
    38    14    36    1
    39    15    38    1
    40    15    39    1
    41    15    40    1
    42    16    41    1
    43    16    42    1
    44    16    43    1
    45    17    44    1
    46    17    45    1
