@<TRIPOS>MOLECULE
IMPHY017030
 21 20 0 0 0
SMALL
GASTEIGER

@<TRIPOS>ATOM
      1 O           3.7320    0.7500    0.0000 O.3     1  UNL1       -0.4618
      2 O           4.5981   -0.7500    0.0000 O.2     1  UNL1       -0.2456
      3 C           6.3301    0.2500    0.0000 C.2     1  UNL1       -0.0690
      4 C           2.8660    0.2500    0.0000 C.3     1  UNL1        0.0900
      5 C           5.4641    0.7500    0.0000 C.2     1  UNL1        0.0212
      6 C           7.1962    0.7500    0.0000 C.3     1  UNL1       -0.0435
      7 C           6.3301   -0.7500    0.0000 C.3     1  UNL1       -0.0435
      8 C           4.5981    0.2500    0.0000 C.2     1  UNL1        0.3319
      9 C           2.0000    0.7500    0.0000 C.3     1  UNL1       -0.0306
     10 H           2.4675   -0.2249    0.0000 H       1  UNL1        0.0695
     11 H           3.2646   -0.2249    0.0000 H       1  UNL1        0.0695
     12 H           5.4641    1.3700    0.0000 H       1  UNL1        0.0688
     13 H           7.5062    0.2131    0.0000 H       1  UNL1        0.0274
     14 H           7.7331    1.0600    0.0000 H       1  UNL1        0.0274
     15 H           6.8862    1.2869    0.0000 H       1  UNL1        0.0274
     16 H           5.7101   -0.7500    0.0000 H       1  UNL1        0.0274
     17 H           6.3301   -1.3700    0.0000 H       1  UNL1        0.0274
     18 H           6.9501   -0.7500    0.0000 H       1  UNL1        0.0274
     19 H           2.3100    1.2869    0.0000 H       1  UNL1        0.0262
     20 H           1.4631    1.0600    0.0000 H       1  UNL1        0.0262
     21 H           1.6900    0.2131    0.0000 H       1  UNL1        0.0262
@<TRIPOS>BOND
     1     1     4    1
     2     1     8    1
     3     2     8    2
     4     3     5    2
     5     3     6    1
     6     3     7    1
     7     4     9    1
     8     4    10    1
     9     4    11    1
    10     5     8    1
    11     5    12    1
    12     6    13    1
    13     6    14    1
    14     6    15    1
    15     7    16    1
    16     7    17    1
    17     7    18    1
    18     9    19    1
    19     9    20    1
    20     9    21    1
