@<TRIPOS>MOLECULE
IMPHY003339
 30 32 0 0 0
SMALL
GASTEIGER

@<TRIPOS>ATOM
      1 O           4.6397   -1.4994    0.0000 O.2     1  UNL1       -0.4210
      2 O           6.0518   -2.5770    0.0000 O.2     1  UNL1       -0.2444
      3 O           7.6913   -1.4606    0.0000 O.2     1  UNL1       -0.2954
      4 C           3.3802    0.8942    0.0000 C.ar    1  UNL1       -0.0332
      5 C           2.3899    0.9807    0.0000 C.3     1  UNL1       -0.0228
      6 C           3.6027   -0.0807    0.0000 C.ar    1  UNL1        0.0241
      7 C           2.0000    0.0663    0.0000 C.3     1  UNL1       -0.0235
      8 C           2.7480   -0.5884    0.0000 C.2     1  UNL1       -0.0432
      9 C           4.5037   -0.5146    0.0000 C.ar    1  UNL1        0.1476
     10 C           4.0037    1.6760    0.0000 C.ar    1  UNL1       -0.0466
     11 C           5.4047   -0.0807    0.0000 C.ar    1  UNL1        0.0351
     12 C           5.0037    1.6760    0.0000 C.ar    1  UNL1       -0.0579
     13 C           5.6272    0.8942    0.0000 C.ar    1  UNL1       -0.0499
     14 C           6.0898   -0.8010    0.0000 C.ar    1  UNL1        0.1091
     15 C           3.5698    2.5770    0.0000 C.3     1  UNL1       -0.0394
     16 C           2.6567   -1.5842    0.0000 C.2     1  UNL1       -0.0948
     17 C           5.6180   -1.6760    0.0000 C.ar    1  UNL1        0.3483
     18 C           7.0810   -0.6685    0.0000 C.2     1  UNL1        0.1577
     19 H           2.5085    1.5893    0.0000 H       1  UNL1        0.0317
     20 H           1.7972    1.1626    0.0000 H       1  UNL1        0.0317
     21 H           1.4584    0.3681    0.0000 H       1  UNL1        0.0316
     22 H           1.6430   -0.4406    0.0000 H       1  UNL1        0.0316
     23 H           5.2727    2.2346    0.0000 H       1  UNL1        0.0620
     24 H           6.2316    1.0321    0.0000 H       1  UNL1        0.0625
     25 H           4.1284    2.8460    0.0000 H       1  UNL1        0.0278
     26 H           3.3008    3.1356    0.0000 H       1  UNL1        0.0278
     27 H           3.0112    2.3080    0.0000 H       1  UNL1        0.0278
     28 H           2.0937   -1.8439    0.0000 H       1  UNL1        0.0538
     29 H           3.1630   -1.9420    0.0000 H       1  UNL1        0.0538
     30 H           7.3171   -0.0952    0.0000 H       1  UNL1        0.1084
@<TRIPOS>BOND
     1     1     9   ar
     2     1    17   ar
     3     2    17    2
     4     3    18    2
     5     4     5    1
     6     4     6   ar
     7     4    10   ar
     8     5     7    1
     9     5    19    1
    10     5    20    1
    11     6     8    1
    12     6     9   ar
    13     7     8    1
    14     7    21    1
    15     7    22    1
    16     8    16    2
    17     9    11    1
    18    10    12   ar
    19    10    15    1
    20    11    13   ar
    21    11    14   ar
    22    12    13   ar
    23    12    23    1
    24    13    24    1
    25    14    17   ar
    26    14    18    1
    27    15    25    1
    28    15    26    1
    29    15    27    1
    30    16    28    1
    31    16    29    1
    32    18    30    1
