@<TRIPOS>MOLECULE
IMPHY003208
 42 44 0 0 0
SMALL
GASTEIGER

@<TRIPOS>ATOM
      1 O           2.5369    0.9508    0.0000 O.3     1  UNL1       -0.3875
      2 C           4.2690   -0.0492    0.0000 C.3     1  UNL1        0.0006
      3 C           3.4030    0.4508    0.0000 C.3     1  UNL1        0.0775
      4 C           4.0598   -1.0210    0.0000 C.3     1  UNL1       -0.0277
      5 C           3.4030    1.4508    0.0000 C.3     1  UNL1       -0.0027
      6 C           3.0711   -1.1240    0.0000 C.3     1  UNL1       -0.0288
      7 C           2.6660   -0.2163    0.0000 C.3     1  UNL1       -0.0175
      8 C           3.2566   -0.4278    0.0000 C.3     1  UNL1       -0.0486
      9 C           3.0002    0.5372    0.0000 C.3     1  UNL1       -0.0447
     10 C           5.1350    0.4508    0.0000 C.3     1  UNL1       -0.0447
     11 C           4.2690    1.9508    0.0000 C.3     1  UNL1       -0.0450
     12 C           5.1350    1.4508    0.0000 C.3     1  UNL1       -0.0519
     13 C           5.1350   -0.5492    0.0000 C.3     1  UNL1       -0.0567
     14 C           2.6586    2.1186    0.0000 C.3     1  UNL1       -0.0569
     15 C           2.1575   -1.5308    0.0000 C.3     1  UNL1       -0.0595
     16 C           3.1756   -2.1186    0.0000 C.3     1  UNL1       -0.0595
     17 H           4.3602   -1.8161    0.0000 H       1  UNL1        0.0312
     18 H           2.3005    0.2846    0.0000 H       1  UNL1        0.0298
     19 H           2.1295   -0.5270    0.0000 H       1  UNL1        0.0298
     20 H           2.6371   -0.4037    0.0000 H       1  UNL1        0.0268
     21 H           3.0513   -1.0128    0.0000 H       1  UNL1        0.0268
     22 H           2.5316    0.9431    0.0000 H       1  UNL1        0.0272
     23 H           2.4744    0.2087    0.0000 H       1  UNL1        0.0272
     24 H           5.3471   -0.1318    0.0000 H       1  UNL1        0.0272
     25 H           5.7456    0.5585    0.0000 H       1  UNL1        0.0272
     26 H           4.6675    2.4258    0.0000 H       1  UNL1        0.0271
     27 H           3.8705    2.4258    0.0000 H       1  UNL1        0.0271
     28 H           5.7456    1.3432    0.0000 H       1  UNL1        0.0266
     29 H           5.3471    2.0334    0.0000 H       1  UNL1        0.0266
     30 H           4.8250   -1.0861    0.0000 H       1  UNL1        0.0236
     31 H           5.6720   -0.8592    0.0000 H       1  UNL1        0.0236
     32 H           5.4450   -0.0122    0.0000 H       1  UNL1        0.0236
     33 H           3.0726    2.5801    0.0000 H       1  UNL1        0.0236
     34 H           2.1971    2.5326    0.0000 H       1  UNL1        0.0236
     35 H           2.2446    1.6571    0.0000 H       1  UNL1        0.0236
     36 H           1.9053   -0.9644    0.0000 H       1  UNL1        0.0235
     37 H           1.5911   -1.7830    0.0000 H       1  UNL1        0.0235
     38 H           2.4097   -2.0972    0.0000 H       1  UNL1        0.0235
     39 H           2.5590   -2.1834    0.0000 H       1  UNL1        0.0235
     40 H           3.2404   -2.7352    0.0000 H       1  UNL1        0.0235
     41 H           3.7922   -2.0538    0.0000 H       1  UNL1        0.0235
     42 H           2.0000    0.6408    0.0000 H       1  UNL1        0.2102
@<TRIPOS>BOND
     1     3     1    1
     2     1    42    1
     3     2     3    1
     4     2     4    1
     5     2    10    1
     6     2    13    1
     7     3     5    1
     8     3     7    1
     9     4     6    1
    10     4     8    1
    11     4    17    1
    12     5     9    1
    13     5    11    1
    14     5    14    1
    15     6     7    1
    16     6    15    1
    17     6    16    1
    18     7    18    1
    19     7    19    1
    20     8     9    1
    21     8    20    1
    22     8    21    1
    23     9    22    1
    24     9    23    1
    25    10    12    1
    26    10    24    1
    27    10    25    1
    28    11    12    1
    29    11    26    1
    30    11    27    1
    31    12    28    1
    32    12    29    1
    33    13    30    1
    34    13    31    1
    35    13    32    1
    36    14    33    1
    37    14    34    1
    38    14    35    1
    39    15    36    1
    40    15    37    1
    41    15    38    1
    42    16    39    1
    43    16    40    1
    44    16    41    1
