@<TRIPOS>MOLECULE
IMPHY002631
 56 58 0 0 0
SMALL
GASTEIGER

@<TRIPOS>ATOM
      1 O           6.5468    2.5674    0.0000 O.3     1  UNL1       -0.3509
      2 O           4.8255    3.0286    0.0000 O.3     1  UNL1       -0.3667
      3 O           2.8660   -2.1350    0.0000 O.3     1  UNL1       -0.4914
      4 O           8.9035   -2.5943    0.0000 O.3     1  UNL1       -0.4914
      5 O           4.5981   -3.1350    0.0000 O.3     1  UNL1       -0.4915
      6 O          10.3898   -1.2560    0.0000 O.3     1  UNL1       -0.4915
      7 C           5.4641    1.3650    0.0000 C.3     1  UNL1        0.0191
      8 C           6.3776    0.9582    0.0000 C.3     1  UNL1       -0.0058
      9 C           5.5686    2.3595    0.0000 C.3     1  UNL1        0.1596
     10 C           7.0468    1.7014    0.0000 C.3     1  UNL1        0.0542
     11 C           4.5981    0.8649    0.0000 C.3     1  UNL1       -0.0198
     12 C           6.5856   -0.0199    0.0000 C.3     1  UNL1       -0.0222
     13 C           4.5981   -0.1351    0.0000 C.ar    1  UNL1       -0.0432
     14 C           7.5366   -0.3290    0.0000 C.ar    1  UNL1       -0.0433
     15 C           3.7320   -0.6351    0.0000 C.ar    1  UNL1       -0.0131
     16 C           7.7445   -1.3071    0.0000 C.ar    1  UNL1       -0.0131
     17 C           5.4641   -0.6351    0.0000 C.ar    1  UNL1       -0.0549
     18 C           8.2798    0.3402    0.0000 C.ar    1  UNL1       -0.0549
     19 C           3.7320   -1.6350    0.0000 C.ar    1  UNL1        0.1617
     20 C           8.6956   -1.6161    0.0000 C.ar    1  UNL1        0.1617
     21 C           5.4641   -1.6350    0.0000 C.ar    1  UNL1       -0.0160
     22 C           9.2308    0.0312    0.0000 C.ar    1  UNL1       -0.0160
     23 C           4.5981   -2.1350    0.0000 C.ar    1  UNL1        0.1615
     24 C           9.4387   -0.9470    0.0000 C.ar    1  UNL1        0.1615
     25 C           2.0000   -1.6350    0.0000 C.3     1  UNL1        0.0790
     26 C           9.8546   -2.9033    0.0000 C.3     1  UNL1        0.0790
     27 C           5.4641   -3.6350    0.0000 C.3     1  UNL1        0.0790
     28 C          11.1329   -0.5869    0.0000 C.3     1  UNL1        0.0790
     29 H           4.9441    1.7026    0.0000 H       1  UNL1        0.0356
     30 H           5.8958    0.5680    0.0000 H       1  UNL1        0.0330
     31 H           5.7291    2.9583    0.0000 H       1  UNL1        0.0910
     32 H           7.4616    1.2406    0.0000 H       1  UNL1        0.0564
     33 H           7.5484    2.0658    0.0000 H       1  UNL1        0.0564
     34 H           4.3860    1.4476    0.0000 H       1  UNL1        0.0318
     35 H           3.9875    0.7573    0.0000 H       1  UNL1        0.0318
     36 H           5.9659   -0.0416    0.0000 H       1  UNL1        0.0317
     37 H           6.4993   -0.6339    0.0000 H       1  UNL1        0.0317
     38 H           4.9544    3.6350    0.0000 H       1  UNL1        0.2125
     39 H           3.1951   -0.3251    0.0000 H       1  UNL1        0.0658
     40 H           7.2838   -1.7220    0.0000 H       1  UNL1        0.0658
     41 H           6.0010   -0.3251    0.0000 H       1  UNL1        0.0621
     42 H           8.1509    0.9466    0.0000 H       1  UNL1        0.0621
     43 H           6.0010   -1.9450    0.0000 H       1  UNL1        0.0655
     44 H           9.6916    0.4460    0.0000 H       1  UNL1        0.0655
     45 H           2.3100   -1.0981    0.0000 H       1  UNL1        0.0660
     46 H           1.4631   -1.3250    0.0000 H       1  UNL1        0.0660
     47 H           1.6900   -2.1720    0.0000 H       1  UNL1        0.0660
     48 H           9.6630   -3.4929    0.0000 H       1  UNL1        0.0660
     49 H          10.4442   -3.0949    0.0000 H       1  UNL1        0.0660
     50 H          10.0461   -2.3136    0.0000 H       1  UNL1        0.0660
     51 H           5.1541   -4.1720    0.0000 H       1  UNL1        0.0660
     52 H           6.0010   -3.9450    0.0000 H       1  UNL1        0.0660
     53 H           5.7741   -3.0981    0.0000 H       1  UNL1        0.0660
     54 H          11.5478   -1.0476    0.0000 H       1  UNL1        0.0660
     55 H          11.5937   -0.1720    0.0000 H       1  UNL1        0.0660
     56 H          10.7181   -0.1261    0.0000 H       1  UNL1        0.0660
@<TRIPOS>BOND
     1     1     9    1
     2     1    10    1
     3     2     9    1
     4     2    38    1
     5     3    19    1
     6     3    25    1
     7     4    20    1
     8     4    26    1
     9     5    23    1
    10     5    27    1
    11     6    24    1
    12     6    28    1
    13     7     8    1
    14     7     9    1
    15     7    11    1
    16     7    29    1
    17     8    10    1
    18     8    12    1
    19     8    30    1
    20     9    31    1
    21    10    32    1
    22    10    33    1
    23    11    13    1
    24    11    34    1
    25    11    35    1
    26    12    14    1
    27    12    36    1
    28    12    37    1
    29    13    15   ar
    30    13    17   ar
    31    14    16   ar
    32    14    18   ar
    33    15    19   ar
    34    15    39    1
    35    16    20   ar
    36    16    40    1
    37    17    21   ar
    38    17    41    1
    39    18    22   ar
    40    18    42    1
    41    19    23   ar
    42    20    24   ar
    43    21    23   ar
    44    21    43    1
    45    22    24   ar
    46    22    44    1
    47    25    45    1
    48    25    46    1
    49    25    47    1
    50    26    48    1
    51    26    49    1
    52    26    50    1
    53    27    51    1
    54    27    52    1
    55    27    53    1
    56    28    54    1
    57    28    55    1
    58    28    56    1
