@<TRIPOS>MOLECULE
IMPHY012630
 40 43 0 0 0
SMALL
GASTEIGER

@<TRIPOS>ATOM
      1 O           2.4141   -0.5177    0.0000 O.3     1  UNL1       -0.3912
      2 C           4.9956   -0.5569    0.0000 C.3     1  UNL1       -0.0180
      3 C           4.1296   -0.0569    0.0000 C.3     1  UNL1        0.0026
      4 C           5.8616   -0.0569    0.0000 C.3     1  UNL1       -0.0310
      5 C           5.8616    0.9431    0.0000 C.3     1  UNL1       -0.0325
      6 C           4.4731   -1.9473    0.0000 C.3     1  UNL1       -0.0459
      7 C           3.1867   -1.2046    0.0000 C.3     1  UNL1       -0.0440
      8 C           6.8699    0.9473    0.0000 C.3     1  UNL1       -0.0315
      9 C           4.7864   -1.5287    0.0000 C.3     1  UNL1       -0.0442
     10 C           6.8699   -0.0610    0.0000 C.3     1  UNL1       -0.0440
     11 C           4.1296    0.9431    0.0000 C.3     1  UNL1       -0.0442
     12 C           3.3926   -0.7240    0.0000 C.3     1  UNL1        0.0614
     13 C           4.9956    1.4431    0.0000 C.3     1  UNL1       -0.0489
     14 C           3.7977   -1.6318    0.0000 C.3     1  UNL1       -0.0258
     15 C           7.8699    0.9493    0.0000 C.3     1  UNL1       -0.0595
     16 C           6.8679    1.9473    0.0000 C.3     1  UNL1       -0.0595
     17 H           6.0209   -0.6561    0.0000 H       1  UNL1        0.0309
     18 H           6.0209    1.5423    0.0000 H       1  UNL1        0.0309
     19 H           4.1929   -2.5003    0.0000 H       1  UNL1        0.0271
     20 H           5.0406   -2.1968    0.0000 H       1  UNL1        0.0271
     21 H           2.6869   -0.8378    0.0000 H       1  UNL1        0.0272
     22 H           2.8479   -1.7238    0.0000 H       1  UNL1        0.0272
     23 H           4.7855   -2.1487    0.0000 H       1  UNL1        0.0272
     24 H           5.4029   -1.5947    0.0000 H       1  UNL1        0.0272
     25 H           6.8682   -0.6810    0.0000 H       1  UNL1        0.0273
     26 H           7.4899   -0.0619    0.0000 H       1  UNL1        0.0273
     27 H           3.9175    1.5257    0.0000 H       1  UNL1        0.0272
     28 H           3.5190    0.8355    0.0000 H       1  UNL1        0.0272
     29 H           3.2308   -0.1254    0.0000 H       1  UNL1        0.0599
     30 H           5.3941    1.9181    0.0000 H       1  UNL1        0.0268
     31 H           4.5971    1.9181    0.0000 H       1  UNL1        0.0268
     32 H           3.2081   -1.8235    0.0000 H       1  UNL1        0.0290
     33 H           3.9264   -2.2382    0.0000 H       1  UNL1        0.0290
     34 H           7.8712    0.3293    0.0000 H       1  UNL1        0.0235
     35 H           8.4899    0.9506    0.0000 H       1  UNL1        0.0235
     36 H           7.8686    1.5693    0.0000 H       1  UNL1        0.0235
     37 H           7.4879    1.9485    0.0000 H       1  UNL1        0.0235
     38 H           6.8666    2.5673    0.0000 H       1  UNL1        0.0235
     39 H           6.2479    1.9460    0.0000 H       1  UNL1        0.0235
     40 H           2.0000   -0.9792    0.0000 H       1  UNL1        0.2098
@<TRIPOS>BOND
     1     1    12    1
     2     1    40    1
     3     2     3    1
     4     2     4    1
     5     2     6    1
     6     2     9    1
     7     3     7    1
     8     3    11    1
     9     3    12    1
    10     4     5    1
    11     4    10    1
    12     4    17    1
    13     5     8    1
    14     5    13    1
    15     5    18    1
    16     6     7    1
    17     6    19    1
    18     6    20    1
    19     7    21    1
    20     7    22    1
    21     8    10    1
    22     8    15    1
    23     8    16    1
    24     9    14    1
    25     9    23    1
    26     9    24    1
    27    10    25    1
    28    10    26    1
    29    11    13    1
    30    11    27    1
    31    11    28    1
    32    12    14    1
    33    12    29    1
    34    13    30    1
    35    13    31    1
    36    14    32    1
    37    14    33    1
    38    15    34    1
    39    15    35    1
    40    15    36    1
    41    16    37    1
    42    16    38    1
    43    16    39    1
