@<TRIPOS>MOLECULE
IMPHY006393
 41 45 0 0 0
SMALL
GASTEIGER

@<TRIPOS>ATOM
      1 O           2.2314   -0.4472    0.0000 O.3     1  UNL1       -0.4761
      2 O           2.0000   -2.9021    0.0000 O.2     1  UNL1       -0.2887
      3 O           2.0000    1.9022    0.0000 O.3     1  UNL1       -0.4914
      4 N           6.1607   -1.4511    0.0000 N.3     1  UNL1       -0.3015
      5 C           3.6897   -0.9755    0.0000 C.3     1  UNL1        0.0525
      6 C           4.5133   -1.4511    0.0000 C.3     1  UNL1        0.0070
      7 C           5.3370   -0.9755    0.0000 C.3     1  UNL1        0.0213
      8 C           4.2392   -0.2781    0.0000 C.3     1  UNL1       -0.0260
      9 C           2.8660   -1.4511    0.0000 C.3     1  UNL1        0.1719
     10 C           3.6897   -0.0245    0.0000 C.ar    1  UNL1        0.0119
     11 C           5.3370   -0.0245    0.0000 C.3     1  UNL1       -0.0110
     12 C           5.5918   -0.2781    0.0000 C.3     1  UNL1       -0.0001
     13 C           4.5133    0.4511    0.0000 C.ar    1  UNL1       -0.0383
     14 C           4.5133   -2.4021    0.0000 C.2     1  UNL1       -0.0750
     15 C           2.8660    0.4511    0.0000 C.ar    1  UNL1        0.1671
     16 C           2.8660   -2.4021    0.0000 C.2     1  UNL1        0.1969
     17 C           3.6897   -2.8777    0.0000 C.2     1  UNL1       -0.0190
     18 C           6.8418   -2.1832    0.0000 C.3     1  UNL1       -0.0124
     19 C           4.5133    1.4022    0.0000 C.ar    1  UNL1       -0.0546
     20 C           2.8660    1.4022    0.0000 C.ar    1  UNL1        0.1618
     21 C           3.6897    1.8777    0.0000 C.ar    1  UNL1       -0.0160
     22 C           2.0000    2.9021    0.0000 C.3     1  UNL1        0.0790
     23 H           5.0597   -2.1022    0.0000 H       1  UNL1        0.0368
     24 H           5.6284   -1.7740    0.0000 H       1  UNL1        0.0472
     25 H           4.3760    0.3266    0.0000 H       1  UNL1        0.0288
     26 H           3.6795   -0.0113    0.0000 H       1  UNL1        0.0288
     27 H           2.0496   -1.6875    0.0000 H       1  UNL1        0.0827
     28 H           5.9476   -0.1321    0.0000 H       1  UNL1        0.0329
     29 H           5.5490    0.5581    0.0000 H       1  UNL1        0.0329
     30 H           6.1840   -0.0943    0.0000 H       1  UNL1        0.0427
     31 H           5.4989    0.3349    0.0000 H       1  UNL1        0.0427
     32 H           5.0503   -2.7122    0.0000 H       1  UNL1        0.0577
     33 H           3.6897   -3.4977    0.0000 H       1  UNL1        0.0650
     34 H           6.3879   -2.6055    0.0000 H       1  UNL1        0.0391
     35 H           7.2641   -2.6371    0.0000 H       1  UNL1        0.0391
     36 H           7.2957   -1.7609    0.0000 H       1  UNL1        0.0391
     37 H           5.0503    1.7122    0.0000 H       1  UNL1        0.0622
     38 H           3.6897    2.4977    0.0000 H       1  UNL1        0.0655
     39 H           2.6200    2.9021    0.0000 H       1  UNL1        0.0660
     40 H           2.0000    3.5222    0.0000 H       1  UNL1        0.0660
     41 H           1.3800    2.9021    0.0000 H       1  UNL1        0.0660
@<TRIPOS>BOND
     1     1     9    1
     2     1    15    1
     3     2    16    2
     4     3    20    1
     5     3    22    1
     6     4     7    1
     7     4    12    1
     8     4    18    1
     9     5     6    1
    10     5     8    1
    11     5     9    1
    12     5    10    1
    13     6     7    1
    14     6    14    1
    15     6    23    1
    16     7    11    1
    17     7    24    1
    18     8    12    1
    19     8    25    1
    20     8    26    1
    21     9    16    1
    22     9    27    1
    23    10    13   ar
    24    10    15   ar
    25    11    13    1
    26    11    28    1
    27    11    29    1
    28    12    30    1
    29    12    31    1
    30    13    19   ar
    31    14    17    2
    32    14    32    1
    33    15    20   ar
    34    16    17    1
    35    17    33    1
    36    18    34    1
    37    18    35    1
    38    18    36    1
    39    19    21   ar
    40    19    37    1
    41    20    21   ar
    42    21    38    1
    43    22    39    1
    44    22    40    1
    45    22    41    1
