@<TRIPOS>MOLECULE
IMPHY002051
 95 98 0 0 0
SMALL
GASTEIGER

@<TRIPOS>ATOM
      1 O           9.4893    4.7233    0.0000 O.3     1  UNL1       -0.3883
      2 O           6.8671    4.1144    0.0000 O.3     1  UNL1       -0.3095
      3 O           6.0010    5.6144    0.0000 O.2     1  UNL1       -0.4701
      4 O           5.1350    4.1144    0.0000 O.3     1  UNL1       -0.3404
      5 O           6.8671    2.1144    0.0000 O.3     1  UNL1       -0.3378
      6 O           6.0580    0.5266    0.0000 O.3     1  UNL1       -0.3456
      7 O           5.1350    1.1144    0.0000 O.3     1  UNL1       -0.3864
      8 O           6.0010    8.6144    0.0000 O.3     1  UNL1       -0.4773
      9 O           3.4030    2.1144    0.0000 O.3     1  UNL1       -0.3865
     10 O           7.7331    8.6144    0.0000 O.2     1  UNL1       -0.2454
     11 O           8.6271    0.8357    0.0000 O.3     1  UNL1       -0.3837
     12 O           8.3181   -0.7334    0.0000 O.3     1  UNL1       -0.3801
     13 O           2.5369    3.6144    0.0000 O.3     1  UNL1       -0.3924
     14 O           6.5010   -1.9244    0.0000 O.3     1  UNL1       -0.4583
     15 O           7.3671   -3.4244    0.0000 O.2     1  UNL1       -0.2453
     16 O           3.0369   -8.9244    0.0000 O.3     1  UNL1       -0.3950
     17 C           7.7331    5.6144    0.0000 C.3     1  UNL1        0.0572
     18 C           8.6793    5.3097    0.0000 C.3     1  UNL1        0.0724
     19 C           7.7331    6.6144    0.0000 C.3     1  UNL1        0.0050
     20 C           9.2629    6.1144    0.0000 C.3     1  UNL1       -0.0232
     21 C           8.6793    6.9192    0.0000 C.3     1  UNL1       -0.0427
     22 C           6.8671    5.1144    0.0000 C.3     1  UNL1        0.2094
     23 C           6.8671    7.1144    0.0000 C.2     1  UNL1        0.0742
     24 C           8.3719    4.3581    0.0000 C.3     1  UNL1       -0.0356
     25 C           6.0010    6.6144    0.0000 C.2     1  UNL1        0.0981
     26 C           6.0010    3.6144    0.0000 C.3     1  UNL1        0.1922
     27 C           6.0010    2.6144    0.0000 C.3     1  UNL1        0.1408
     28 C           5.1350    2.1144    0.0000 C.3     1  UNL1        0.1144
     29 C           6.8671    8.1144    0.0000 C.2     1  UNL1        0.3360
     30 C           4.2690    2.6144    0.0000 C.3     1  UNL1        0.1119
     31 C           4.2690    3.6144    0.0000 C.3     1  UNL1        0.1130
     32 C           6.8671    1.1144    0.0000 C.3     1  UNL1        0.1885
     33 C           7.6761    0.5266    0.0000 C.3     1  UNL1        0.1398
     34 C           7.3671   -0.4244    0.0000 C.3     1  UNL1        0.1534
     35 C           3.4030    4.1144    0.0000 C.3     1  UNL1        0.0730
     36 C           6.3671   -0.4244    0.0000 C.3     1  UNL1        0.0853
     37 C           7.3671   -1.4244    0.0000 C.3     1  UNL1        0.1262
     38 C           6.5010   -2.9244    0.0000 C.2     1  UNL1        0.3347
     39 C           5.6350   -3.4244    0.0000 C.2     1  UNL1        0.0296
     40 C           5.6350   -4.4244    0.0000 C.2     1  UNL1       -0.0743
     41 C           4.7690   -4.9244    0.0000 C.3     1  UNL1       -0.0338
     42 C           4.7690   -5.9244    0.0000 C.3     1  UNL1       -0.0469
     43 C           3.9030   -6.4244    0.0000 C.3     1  UNL1       -0.0415
     44 C           4.7690   -2.9244    0.0000 C.3     1  UNL1       -0.0332
     45 C           3.9030   -7.4244    0.0000 C.3     1  UNL1       -0.0271
     46 C           3.0369   -5.9244    0.0000 C.3     1  UNL1       -0.0623
     47 C           3.0369   -7.9244    0.0000 C.3     1  UNL1        0.0444
     48 H           7.7987    4.9979    0.0000 H       1  UNL1        0.0395
     49 H           7.7987    7.2309    0.0000 H       1  UNL1        0.0358
     50 H           9.7238    5.6997    0.0000 H       1  UNL1        0.0293
     51 H           9.7238    6.5291    0.0000 H       1  UNL1        0.0293
     52 H           9.2167    7.2284    0.0000 H       1  UNL1        0.0272
     53 H           8.4283    7.4861    0.0000 H       1  UNL1        0.0272
     54 H           7.4040    4.8044    0.0000 H       1  UNL1        0.1060
     55 H           7.7820    4.5487    0.0000 H       1  UNL1        0.0257
     56 H           8.1814    3.7681    0.0000 H       1  UNL1        0.0257
     57 H           8.9619    4.1675    0.0000 H       1  UNL1        0.0257
     58 H          10.0553    4.9765    0.0000 H       1  UNL1        0.2102
     59 H           6.0010    4.2344    0.0000 H       1  UNL1        0.0939
     60 H           5.4641    6.9244    0.0000 H       1  UNL1        0.1029
     61 H           6.0010    1.9944    0.0000 H       1  UNL1        0.0675
     62 H           4.5981    1.8044    0.0000 H       1  UNL1        0.0648
     63 H           4.2690    1.9944    0.0000 H       1  UNL1        0.0647
     64 H           4.2690    4.2344    0.0000 H       1  UNL1        0.0647
     65 H           7.4195    1.3959    0.0000 H       1  UNL1        0.0938
     66 H           7.7731    1.1390    0.0000 H       1  UNL1        0.0675
     67 H           5.7606   -0.5533    0.0000 H       1  UNL1        0.0591
     68 H           6.4319   -1.0410    0.0000 H       1  UNL1        0.0591
     69 H           3.8015    4.5894    0.0000 H       1  UNL1        0.0584
     70 H           3.0044    4.5894    0.0000 H       1  UNL1        0.0584
     71 H           4.5981    0.8044    0.0000 H       1  UNL1        0.2100
     72 H           7.5791   -2.0070    0.0000 H       1  UNL1        0.0728
     73 H           7.9776   -1.3168    0.0000 H       1  UNL1        0.0728
     74 H           6.0010    9.2344    0.0000 H       1  UNL1        0.2954
     75 H           3.4030    1.4944    0.0000 H       1  UNL1        0.2100
     76 H           8.7560    1.4421    0.0000 H       1  UNL1        0.2101
     77 H           8.4470   -1.3399    0.0000 H       1  UNL1        0.2105
     78 H           2.0000    3.9244    0.0000 H       1  UNL1        0.2095
     79 H           6.1720   -4.7344    0.0000 H       1  UNL1        0.0577
     80 H           4.5569   -4.3418    0.0000 H       1  UNL1        0.0308
     81 H           4.1584   -5.0321    0.0000 H       1  UNL1        0.0308
     82 H           4.9810   -6.5070    0.0000 H       1  UNL1        0.0271
     83 H           5.3796   -5.8168    0.0000 H       1  UNL1        0.0271
     84 H           3.9030   -5.8044    0.0000 H       1  UNL1        0.0299
     85 H           5.0790   -2.3875    0.0000 H       1  UNL1        0.0280
     86 H           4.2320   -2.6144    0.0000 H       1  UNL1        0.0280
     87 H           4.4590   -3.4614    0.0000 H       1  UNL1        0.0280
     88 H           4.1150   -8.0070    0.0000 H       1  UNL1        0.0290
     89 H           4.5135   -7.3168    0.0000 H       1  UNL1        0.0290
     90 H           3.3469   -5.3875    0.0000 H       1  UNL1        0.0232
     91 H           2.5000   -5.6144    0.0000 H       1  UNL1        0.0232
     92 H           2.7269   -6.4614    0.0000 H       1  UNL1        0.0232
     93 H           2.8249   -7.3418    0.0000 H       1  UNL1        0.0557
     94 H           2.4263   -8.0321    0.0000 H       1  UNL1        0.0557
     95 H           2.5000   -9.2344    0.0000 H       1  UNL1        0.2094
@<TRIPOS>BOND
     1    18     1    1
     2     1    58    1
     3     2    22    1
     4     2    26    1
     5     3    22    1
     6     3    25    1
     7     4    26    1
     8     4    31    1
     9     5    27    1
    10    32     5    1
    11     6    32    1
    12     6    36    1
    13     7    28    1
    14     7    71    1
    15     8    29    1
    16     8    74    1
    17     9    30    1
    18     9    75    1
    19    10    29    2
    20    11    33    1
    21    11    76    1
    22    34    12    1
    23    12    77    1
    24    13    35    1
    25    13    78    1
    26    14    37    1
    27    14    38    1
    28    15    38    2
    29    16    47    1
    30    16    95    1
    31    17    18    1
    32    17    19    1
    33    17    22    1
    34    17    48    1
    35    18    20    1
    36    18    24    1
    37    19    21    1
    38    19    23    1
    39    19    49    1
    40    20    21    1
    41    20    50    1
    42    20    51    1
    43    21    52    1
    44    21    53    1
    45    22    54    1
    46    23    25    2
    47    23    29    1
    48    24    55    1
    49    24    56    1
    50    24    57    1
    51    25    60    1
    52    26    27    1
    53    26    59    1
    54    27    28    1
    55    27    61    1
    56    28    30    1
    57    28    62    1
    58    30    31    1
    59    30    63    1
    60    31    35    1
    61    31    64    1
    62    32    33    1
    63    32    65    1
    64    33    34    1
    65    33    66    1
    66    34    36    1
    67    34    37    1
    68    35    69    1
    69    35    70    1
    70    36    67    1
    71    36    68    1
    72    37    72    1
    73    37    73    1
    74    38    39    1
    75    39    40    2
    76    39    44    1
    77    40    41    1
    78    40    79    1
    79    41    42    1
    80    41    80    1
    81    41    81    1
    82    42    43    1
    83    42    82    1
    84    42    83    1
    85    43    45    1
    86    43    46    1
    87    43    84    1
    88    44    85    1
    89    44    86    1
    90    44    87    1
    91    45    47    1
    92    45    88    1
    93    45    89    1
    94    46    90    1
    95    46    91    1
    96    46    92    1
    97    47    93    1
    98    47    94    1
