@<TRIPOS>MOLECULE
IMPHY003451
 180 190 0 0 0
SMALL
GASTEIGER

@<TRIPOS>ATOM
      1 O          14.9898    8.5403    0.0000 O.3     1  UNL1       -0.3448
      2 O          13.2174    9.4351    0.0000 O.3     1  UNL1       -0.3480
      3 O          13.5667    0.2963    0.0000 O.3     1  UNL1       -0.3429
      4 O          11.7593    1.3491    0.0000 O.3     1  UNL1       -0.3892
      5 O          11.8347    0.2963    0.0000 O.3     1  UNL1       -0.3405
      6 O          13.5667   -1.7038    0.0000 O.3     1  UNL1       -0.3841
      7 O          11.8347   -2.7038    0.0000 O.3     1  UNL1       -0.3401
      8 O          10.1026   -1.7038    0.0000 O.3     1  UNL1       -0.3865
      9 O          10.1026    1.2962    0.0000 O.3     1  UNL1       -0.3924
     10 O          10.1026   -2.7038    0.0000 O.3     1  UNL1       -0.3405
     11 O          11.8347   -4.7038    0.0000 O.3     1  UNL1       -0.3841
     12 O          10.1026   -5.7038    0.0000 O.3     1  UNL1       -0.3864
     13 O           8.3706   -4.7038    0.0000 O.3     1  UNL1       -0.3401
     14 O           7.5045   -3.2038    0.0000 O.3     1  UNL1       -0.3924
     15 O           9.2366   -6.2038    0.0000 O.3     1  UNL1       -0.3405
     16 O           6.6385   -5.7038    0.0000 O.3     1  UNL1       -0.3377
     17 O           6.6385   -7.7038    0.0000 O.3     1  UNL1       -0.3400
     18 O           8.3706   -8.7038    0.0000 O.3     1  UNL1       -0.3865
     19 O           5.0109   -6.2962    0.0000 O.3     1  UNL1       -0.3405
     20 O          10.1026   -8.7038    0.0000 O.3     1  UNL1       -0.3924
     21 O           7.5045   -9.2038    0.0000 O.3     1  UNL1       -0.3405
     22 O           5.9545   -3.8244    0.0000 O.3     1  UNL1       -0.3841
     23 O           4.9065   -8.7038    0.0000 O.3     1  UNL1       -0.3841
     24 O           3.9849   -3.4770    0.0000 O.3     1  UNL1       -0.3864
     25 O           2.6993   -5.0091    0.0000 O.3     1  UNL1       -0.3865
     26 O           4.9065  -10.7037    0.0000 O.3     1  UNL1       -0.3864
     27 O           6.6385  -11.7037    0.0000 O.3     1  UNL1       -0.3865
     28 O           2.3985   -6.7149    0.0000 O.3     1  UNL1       -0.3924
     29 O           8.3706  -11.7037    0.0000 O.3     1  UNL1       -0.3924
     30 C          13.5960    6.4931    0.0000 C.3     1  UNL1       -0.0233
     31 C          14.4639    5.9965    0.0000 C.3     1  UNL1       -0.0298
     32 C          14.4678    4.9965    0.0000 C.3     1  UNL1       -0.0343
     33 C          13.8014    7.4657    0.0000 C.3     1  UNL1       -0.0015
     34 C          13.6037    4.4931    0.0000 C.3     1  UNL1       -0.0322
     35 C          13.5916    3.4516    0.0000 C.3     1  UNL1       -0.0237
     36 C          14.7898    7.5726    0.0000 C.3     1  UNL1        0.0660
     37 C          15.1984    6.6664    0.0000 C.3     1  UNL1       -0.0226
     38 C          12.7319    5.9898    0.0000 C.3     1  UNL1       -0.0467
     39 C          12.7357    4.9898    0.0000 C.3     1  UNL1       -0.0489
     40 C          13.3991    8.3683    0.0000 C.3     1  UNL1        0.0160
     41 C          14.4917    2.9273    0.0000 C.3     1  UNL1       -0.0329
     42 C          15.3797    4.4931    0.0000 C.3     1  UNL1       -0.0494
     43 C          14.1321    9.0311    0.0000 C.3     1  UNL1        0.1732
     44 C          15.3918    3.4516    0.0000 C.3     1  UNL1       -0.0494
     45 C          12.7280    6.9898    0.0000 C.3     1  UNL1       -0.0590
     46 C          12.6417    2.9273    0.0000 C.3     1  UNL1       -0.0185
     47 C          14.5043    1.8424    0.0000 C.3     1  UNL1       -0.0207
     48 C          12.7276    3.9549    0.0000 C.3     1  UNL1       -0.0590
     49 C          12.6292    1.8424    0.0000 C.3     1  UNL1        0.0819
     50 C          13.5667    1.2962    0.0000 C.3     1  UNL1        0.0879
     51 C          12.4207    8.5750    0.0000 C.3     1  UNL1       -0.0572
     52 C          14.9394    9.6213    0.0000 C.3     1  UNL1        0.0020
     53 C          14.8319   10.6155    0.0000 C.3     1  UNL1       -0.0435
     54 C          13.1099   10.4293    0.0000 C.3     1  UNL1        0.0535
     55 C          13.9171   11.0195    0.0000 C.3     1  UNL1       -0.0201
     56 C          13.8096   12.0137    0.0000 C.3     1  UNL1       -0.0603
     57 C          12.7007   -0.2037    0.0000 C.3     1  UNL1        0.1883
     58 C          12.7007   -1.2038    0.0000 C.3     1  UNL1        0.1345
     59 C          11.8347   -1.7038    0.0000 C.3     1  UNL1        0.1206
     60 C          10.9686   -0.2037    0.0000 C.3     1  UNL1        0.1130
     61 C          10.9686   -1.2038    0.0000 C.3     1  UNL1        0.1123
     62 C          10.1026    0.2963    0.0000 C.3     1  UNL1        0.0730
     63 C          10.9686   -3.2038    0.0000 C.3     1  UNL1        0.1884
     64 C          10.9686   -4.2038    0.0000 C.3     1  UNL1        0.1341
     65 C          10.1026   -4.7038    0.0000 C.3     1  UNL1        0.1144
     66 C           9.2366   -3.2038    0.0000 C.3     1  UNL1        0.1134
     67 C           9.2366   -4.2038    0.0000 C.3     1  UNL1        0.1184
     68 C           8.3706   -2.7038    0.0000 C.3     1  UNL1        0.0730
     69 C           8.3706   -5.7038    0.0000 C.3     1  UNL1        0.1888
     70 C           7.5045   -6.2038    0.0000 C.3     1  UNL1        0.1410
     71 C           7.5045   -7.2038    0.0000 C.3     1  UNL1        0.1209
     72 C           9.2366   -7.2038    0.0000 C.3     1  UNL1        0.1130
     73 C           8.3706   -7.7038    0.0000 C.3     1  UNL1        0.1123
     74 C          10.1026   -7.7038    0.0000 C.3     1  UNL1        0.0730
     75 C           5.6537   -5.5301    0.0000 C.3     1  UNL1        0.1885
     76 C           6.6385   -8.7038    0.0000 C.3     1  UNL1        0.1884
     77 C           5.3118   -4.5903    0.0000 C.3     1  UNL1        0.1341
     78 C           5.7725   -9.2038    0.0000 C.3     1  UNL1        0.1341
     79 C           4.3269   -4.4167    0.0000 C.3     1  UNL1        0.1141
     80 C           4.0261   -6.1225    0.0000 C.3     1  UNL1        0.1130
     81 C           3.6841   -5.1828    0.0000 C.3     1  UNL1        0.1119
     82 C           5.7725  -10.2037    0.0000 C.3     1  UNL1        0.1141
     83 C           7.5045  -10.2037    0.0000 C.3     1  UNL1        0.1130
     84 C           6.6385  -10.7037    0.0000 C.3     1  UNL1        0.1119
     85 C           3.3833   -6.8886    0.0000 C.3     1  UNL1        0.0730
     86 C           8.3706  -10.7037    0.0000 C.3     1  UNL1        0.0730
     87 H          15.2422    5.6548    0.0000 H       1  UNL1        0.0310
     88 H          15.1989    5.4300    0.0000 H       1  UNL1        0.0306
     89 H          12.9562    7.3762    0.0000 H       1  UNL1        0.0335
     90 H          14.3382    4.0653    0.0000 H       1  UNL1        0.0309
     91 H          15.6346    7.6658    0.0000 H       1  UNL1        0.0600
     92 H          15.5657    6.1670    0.0000 H       1  UNL1        0.0293
     93 H          15.7337    6.9792    0.0000 H       1  UNL1        0.0293
     94 H          12.5176    6.5716    0.0000 H       1  UNL1        0.0271
     95 H          12.1217    5.8798    0.0000 H       1  UNL1        0.0271
     96 H          12.1248    5.0951    0.0000 H       1  UNL1        0.0268
     97 H          12.5259    4.4064    0.0000 H       1  UNL1        0.0268
     98 H          13.2377    8.9669    0.0000 H       1  UNL1        0.0354
     99 H          15.2311    2.5080    0.0000 H       1  UNL1        0.0307
    100 H          15.9918    4.3941    0.0000 H       1  UNL1        0.0268
    101 H          15.5820    5.0792    0.0000 H       1  UNL1        0.0268
    102 H          15.6076    2.8703    0.0000 H       1  UNL1        0.0268
    103 H          16.0014    3.5647    0.0000 H       1  UNL1        0.0268
    104 H          13.0360    7.5279    0.0000 H       1  UNL1        0.0235
    105 H          12.1899    7.2977    0.0000 H       1  UNL1        0.0235
    106 H          12.4201    6.4517    0.0000 H       1  UNL1        0.0235
    107 H          12.4394    3.5134    0.0000 H       1  UNL1        0.0296
    108 H          12.0297    2.8283    0.0000 H       1  UNL1        0.0296
    109 H          14.7200    1.2611    0.0000 H       1  UNL1        0.0294
    110 H          15.1138    1.9555    0.0000 H       1  UNL1        0.0294
    111 H          13.0396    4.4906    0.0000 H       1  UNL1        0.0235
    112 H          12.1918    4.2670    0.0000 H       1  UNL1        0.0235
    113 H          12.4155    3.4192    0.0000 H       1  UNL1        0.0235
    114 H          12.6256    1.2224    0.0000 H       1  UNL1        0.0619
    115 H          14.3037    0.8727    0.0000 H       1  UNL1        0.0623
    116 H          12.5489    9.1816    0.0000 H       1  UNL1        0.0234
    117 H          11.8141    8.7032    0.0000 H       1  UNL1        0.0234
    118 H          12.2926    7.9684    0.0000 H       1  UNL1        0.0234
    119 H          15.2128    9.0649    0.0000 H       1  UNL1        0.0317
    120 H          15.5348    9.7940    0.0000 H       1  UNL1        0.0317
    121 H          15.4505   10.5741    0.0000 H       1  UNL1        0.0270
    122 H          14.9801   11.2176    0.0000 H       1  UNL1        0.0270
    123 H          12.8364   10.9858    0.0000 H       1  UNL1        0.0563
    124 H          12.5144   10.2567    0.0000 H       1  UNL1        0.0563
    125 H          14.6033   11.5212    0.0000 H       1  UNL1        0.0320
    126 H          11.2248    1.6632    0.0000 H       1  UNL1        0.2099
    127 H          14.4260   12.0804    0.0000 H       1  UNL1        0.0233
    128 H          13.7430   12.6302    0.0000 H       1  UNL1        0.0233
    129 H          13.1932   11.9471    0.0000 H       1  UNL1        0.0233
    130 H          12.7007    0.6463    0.0000 H       1  UNL1        0.0938
    131 H          12.7007   -2.0538    0.0000 H       1  UNL1        0.0671
    132 H          11.0985   -2.1288    0.0000 H       1  UNL1        0.0651
    133 H          10.9686    0.6463    0.0000 H       1  UNL1        0.0647
    134 H          10.2325   -0.7787    0.0000 H       1  UNL1        0.0647
    135 H          13.5667   -2.3238    0.0000 H       1  UNL1        0.2101
    136 H           9.4920    0.4039    0.0000 H       1  UNL1        0.0584
    137 H           9.8906   -0.2864    0.0000 H       1  UNL1        0.0584
    138 H           9.5657   -1.3938    0.0000 H       1  UNL1        0.2100
    139 H          10.9686   -2.3537    0.0000 H       1  UNL1        0.0938
    140 H           9.5657    1.6062    0.0000 H       1  UNL1        0.2095
    141 H          10.9686   -5.0538    0.0000 H       1  UNL1        0.0671
    142 H           9.3665   -5.1288    0.0000 H       1  UNL1        0.0648
    143 H           9.2366   -2.3537    0.0000 H       1  UNL1        0.0647
    144 H           8.5005   -3.7788    0.0000 H       1  UNL1        0.0651
    145 H          12.3716   -4.3938    0.0000 H       1  UNL1        0.2101
    146 H           8.7691   -2.2288    0.0000 H       1  UNL1        0.0584
    147 H           7.9720   -2.2288    0.0000 H       1  UNL1        0.0584
    148 H          10.6396   -6.0138    0.0000 H       1  UNL1        0.2100
    149 H           7.6344   -5.2787    0.0000 H       1  UNL1        0.0938
    150 H           6.9676   -2.8938    0.0000 H       1  UNL1        0.2095
    151 H           8.2407   -6.6288    0.0000 H       1  UNL1        0.0675
    152 H           7.5045   -8.0538    0.0000 H       1  UNL1        0.0651
    153 H           9.9727   -6.7788    0.0000 H       1  UNL1        0.0647
    154 H           9.1067   -8.1288    0.0000 H       1  UNL1        0.0647
    155 H          10.7132   -7.8114    0.0000 H       1  UNL1        0.0584
    156 H          10.3147   -7.1211    0.0000 H       1  UNL1        0.0584
    157 H           6.2001   -4.8790    0.0000 H       1  UNL1        0.0938
    158 H           5.9024   -8.2788    0.0000 H       1  UNL1        0.0938
    159 H           8.9075   -9.0138    0.0000 H       1  UNL1        0.2100
    160 H           5.0210   -3.7916    0.0000 H       1  UNL1        0.0671
    161 H           6.5086   -9.6288    0.0000 H       1  UNL1        0.0671
    162 H           3.4898   -4.2691    0.0000 H       1  UNL1        0.0648
    163 H           4.3168   -6.9212    0.0000 H       1  UNL1        0.0647
    164 H           4.5212   -5.3304    0.0000 H       1  UNL1        0.0647
    165 H          10.6396   -9.0138    0.0000 H       1  UNL1        0.2095
    166 H           5.7725  -11.0537    0.0000 H       1  UNL1        0.0648
    167 H           8.2407   -9.7788    0.0000 H       1  UNL1        0.0647
    168 H           7.3746  -11.1287    0.0000 H       1  UNL1        0.0647
    169 H           5.7424   -3.2418    0.0000 H       1  UNL1        0.2101
    170 H           3.1713   -7.4712    0.0000 H       1  UNL1        0.0584
    171 H           3.9203   -7.1986    0.0000 H       1  UNL1        0.0584
    172 H           4.3695   -9.0138    0.0000 H       1  UNL1        0.2101
    173 H           8.9812  -10.8114    0.0000 H       1  UNL1        0.0584
    174 H           8.5826  -10.1211    0.0000 H       1  UNL1        0.0584
    175 H           3.3743   -3.3693    0.0000 H       1  UNL1        0.2100
    176 H           2.4872   -4.4265    0.0000 H       1  UNL1        0.2100
    177 H           4.9065  -11.3237    0.0000 H       1  UNL1        0.2100
    178 H           6.1016  -12.0137    0.0000 H       1  UNL1        0.2100
    179 H           2.0000   -7.1899    0.0000 H       1  UNL1        0.2095
    180 H           8.9075  -12.0137    0.0000 H       1  UNL1        0.2095
@<TRIPOS>BOND
     1     1    36    1
     2    43     1    1
     3     2    43    1
     4     2    54    1
     5     3    50    1
     6     3    57    1
     7    49     4    1
     8     4   126    1
     9     5    57    1
    10     5    60    1
    11     6    58    1
    12     6   135    1
    13     7    59    1
    14     7    63    1
    15     8    61    1
    16     8   138    1
    17     9    62    1
    18     9   140    1
    19    10    63    1
    20    10    66    1
    21    11    64    1
    22    11   145    1
    23    12    65    1
    24    12   148    1
    25    13    67    1
    26    13    69    1
    27    14    68    1
    28    14   150    1
    29    15    69    1
    30    15    72    1
    31    16    70    1
    32    16    75    1
    33    17    71    1
    34    17    76    1
    35    18    73    1
    36    18   159    1
    37    19    75    1
    38    19    80    1
    39    20    74    1
    40    20   165    1
    41    21    76    1
    42    21    83    1
    43    22    77    1
    44    22   169    1
    45    23    78    1
    46    23   172    1
    47    24    79    1
    48    24   175    1
    49    25    81    1
    50    25   176    1
    51    26    82    1
    52    26   177    1
    53    27    84    1
    54    27   178    1
    55    28    85    1
    56    28   179    1
    57    29    86    1
    58    29   180    1
    59    30    31    1
    60    30    33    1
    61    30    38    1
    62    30    45    1
    63    31    32    1
    64    31    37    1
    65    31    87    1
    66    32    34    1
    67    32    42    1
    68    32    88    1
    69    33    36    1
    70    33    40    1
    71    33    89    1
    72    34    35    1
    73    34    39    1
    74    34    90    1
    75    35    41    1
    76    35    46    1
    77    35    48    1
    78    36    37    1
    79    36    91    1
    80    37    92    1
    81    37    93    1
    82    38    39    1
    83    38    94    1
    84    38    95    1
    85    39    96    1
    86    39    97    1
    87    40    43    1
    88    40    51    1
    89    40    98    1
    90    41    44    1
    91    41    47    1
    92    41    99    1
    93    42    44    1
    94    42   100    1
    95    42   101    1
    96    43    52    1
    97    44   102    1
    98    44   103    1
    99    45   104    1
   100    45   105    1
   101    45   106    1
   102    46    49    1
   103    46   107    1
   104    46   108    1
   105    47    50    1
   106    47   109    1
   107    47   110    1
   108    48   111    1
   109    48   112    1
   110    48   113    1
   111    49    50    1
   112    49   114    1
   113    50   115    1
   114    51   116    1
   115    51   117    1
   116    51   118    1
   117    52    53    1
   118    52   119    1
   119    52   120    1
   120    53    55    1
   121    53   121    1
   122    53   122    1
   123    54    55    1
   124    54   123    1
   125    54   124    1
   126    55    56    1
   127    55   125    1
   128    56   127    1
   129    56   128    1
   130    56   129    1
   131    57    58    1
   132    57   130    1
   133    58    59    1
   134    58   131    1
   135    59    61    1
   136    59   132    1
   137    60    61    1
   138    60    62    1
   139    60   133    1
   140    61   134    1
   141    62   136    1
   142    62   137    1
   143    63    64    1
   144    63   139    1
   145    64    65    1
   146    64   141    1
   147    65    67    1
   148    65   142    1
   149    66    67    1
   150    66    68    1
   151    66   143    1
   152    67   144    1
   153    68   146    1
   154    68   147    1
   155    69    70    1
   156    69   149    1
   157    70    71    1
   158    70   151    1
   159    71    73    1
   160    71   152    1
   161    72    73    1
   162    72    74    1
   163    72   153    1
   164    73   154    1
   165    74   155    1
   166    74   156    1
   167    75    77    1
   168    75   157    1
   169    76    78    1
   170    76   158    1
   171    77    79    1
   172    77   160    1
   173    78    82    1
   174    78   161    1
   175    79    81    1
   176    79   162    1
   177    80    81    1
   178    80    85    1
   179    80   163    1
   180    81   164    1
   181    82    84    1
   182    82   166    1
   183    83    84    1
   184    83    86    1
   185    83   167    1
   186    84   168    1
   187    85   170    1
   188    85   171    1
   189    86   173    1
   190    86   174    1
