@<TRIPOS>MOLECULE
IMPHY007474
 32 34 0 0 0
SMALL
GASTEIGER

@<TRIPOS>ATOM
      1 O           4.6660   -0.2500    0.0000 O.2     1  UNL1       -0.4509
      2 O           6.3981    1.7500    0.0000 O.3     1  UNL1       -0.5007
      3 O           8.9962   -1.7500    0.0000 O.3     1  UNL1       -0.4951
      4 O           4.6660    2.7500    0.0000 O.2     1  UNL1       -0.2831
      5 C           5.5321    0.2500    0.0000 C.ar    1  UNL1        0.1806
      6 C           3.8000    1.2500    0.0000 C.ar    1  UNL1        0.0677
      7 C           3.8000    0.2500    0.0000 C.ar    1  UNL1        0.1395
      8 C           6.3981   -0.2500    0.0000 C.ar    1  UNL1        0.0213
      9 C           5.5321    1.2500    0.0000 C.ar    1  UNL1        0.2081
     10 C           4.6660    1.7500    0.0000 C.ar    1  UNL1        0.2343
     11 C           2.9061    1.7847    0.0000 C.ar    1  UNL1       -0.0473
     12 C           6.3981   -1.2500    0.0000 C.ar    1  UNL1       -0.0475
     13 C           7.2641    0.2500    0.0000 C.ar    1  UNL1       -0.0475
     14 C           2.9061   -0.2847    0.0000 C.ar    1  UNL1       -0.0186
     15 C           7.2641   -1.7500    0.0000 C.ar    1  UNL1       -0.0193
     16 C           8.1301   -0.2500    0.0000 C.ar    1  UNL1       -0.0193
     17 C           2.0000    1.2708    0.0000 C.ar    1  UNL1       -0.0609
     18 C           8.1301   -1.2500    0.0000 C.ar    1  UNL1        0.1201
     19 C           2.0000    0.2292    0.0000 C.ar    1  UNL1       -0.0582
     20 C           8.9962   -2.7500    0.0000 C.3     1  UNL1        0.0788
     21 H           2.9132    2.4046    0.0000 H       1  UNL1        0.0626
     22 H           5.8612   -1.5600    0.0000 H       1  UNL1        0.0626
     23 H           7.2641    0.8700    0.0000 H       1  UNL1        0.0626
     24 H           2.9132   -0.9046    0.0000 H       1  UNL1        0.0654
     25 H           7.2641   -2.3700    0.0000 H       1  UNL1        0.0654
     26 H           8.6671    0.0600    0.0000 H       1  UNL1        0.0654
     27 H           1.4643    1.5829    0.0000 H       1  UNL1        0.0618
     28 H           1.4643   -0.0829    0.0000 H       1  UNL1        0.0619
     29 H           6.3981    2.3700    0.0000 H       1  UNL1        0.2924
     30 H           8.3762   -2.7500    0.0000 H       1  UNL1        0.0660
     31 H           8.9962   -3.3700    0.0000 H       1  UNL1        0.0660
     32 H           9.6162   -2.7500    0.0000 H       1  UNL1        0.0660
@<TRIPOS>BOND
     1     1     5   ar
     2     1     7   ar
     3     2     9    1
     4     2    29    1
     5     3    18    1
     6     3    20    1
     7     4    10    2
     8     5     8    1
     9     5     9   ar
    10     6     7   ar
    11     6    10   ar
    12     6    11   ar
    13     7    14   ar
    14     8    12   ar
    15     8    13   ar
    16     9    10   ar
    17    11    17   ar
    18    11    21    1
    19    12    15   ar
    20    12    22    1
    21    13    16   ar
    22    13    23    1
    23    14    19   ar
    24    14    24    1
    25    15    18   ar
    26    15    25    1
    27    16    18   ar
    28    16    26    1
    29    17    19   ar
    30    17    27    1
    31    19    28    1
    32    20    30    1
    33    20    31    1
    34    20    32    1
