@<TRIPOS>MOLECULE
IMPHY005241
 123 129 0 0 0
SMALL
GASTEIGER

@<TRIPOS>ATOM
      1 O           6.8671   -1.6941    0.0000 O.3     1  UNL1       -0.3449
      2 O           8.6209    7.5853    0.0000 O.3     1  UNL1       -0.4802
      3 O           9.5042    6.0954    0.0000 O.2     1  UNL1       -0.2504
      4 O           5.1350   -1.6941    0.0000 O.3     1  UNL1       -0.3405
      5 O           6.8671   -3.6941    0.0000 O.3     1  UNL1       -0.3378
      6 O           5.1350   -4.6941    0.0000 O.3     1  UNL1       -0.3864
      7 O           3.4030   -3.6941    0.0000 O.3     1  UNL1       -0.3865
      8 O           6.0010   -5.1941    0.0000 O.3     1  UNL1       -0.3405
      9 O           2.5369   -2.1941    0.0000 O.3     1  UNL1       -0.3924
     10 O           8.5991   -4.6941    0.0000 O.3     1  UNL1       -0.3841
     11 O           8.5991   -6.6941    0.0000 O.3     1  UNL1       -0.3864
     12 O           6.8671   -7.6941    0.0000 O.3     1  UNL1       -0.3865
     13 O           5.1350   -7.6941    0.0000 O.3     1  UNL1       -0.3924
     14 C           7.7681    3.0061    0.0000 C.3     1  UNL1       -0.0194
     15 C           6.9040    2.5027    0.0000 C.3     1  UNL1       -0.0257
     16 C           6.8920    1.4612    0.0000 C.3     1  UNL1       -0.0250
     17 C           7.7643    4.0061    0.0000 C.3     1  UNL1       -0.0051
     18 C           7.7920    0.9369    0.0000 C.3     1  UNL1       -0.0278
     19 C           8.6801    2.5027    0.0000 C.3     1  UNL1       -0.0463
     20 C           7.8046   -0.1480    0.0000 C.3     1  UNL1       -0.0052
     21 C           8.6921    1.4612    0.0000 C.3     1  UNL1       -0.0486
     22 C           6.8963    4.5027    0.0000 C.2     1  UNL1       -0.0629
     23 C           6.0361    2.9994    0.0000 C.3     1  UNL1       -0.0306
     24 C           5.9421    0.9369    0.0000 C.3     1  UNL1       -0.0447
     25 C           6.8762    5.5442    0.0000 C.3     1  UNL1       -0.0031
     26 C           8.6723    4.5164    0.0000 C.3     1  UNL1       -0.0424
     27 C           7.7722    6.0754    0.0000 C.3     1  UNL1        0.0741
     28 C           8.7522    3.1835    0.0000 C.3     1  UNL1       -0.0585
     29 C           6.8671   -0.6941    0.0000 C.3     1  UNL1        0.0672
     30 C           8.6763    5.5580    0.0000 C.3     1  UNL1       -0.0359
     31 C           6.0279    1.9645    0.0000 C.3     1  UNL1       -0.0590
     32 C           5.9295   -0.1480    0.0000 C.3     1  UNL1       -0.0255
     33 C           6.0322    3.9994    0.0000 C.2     1  UNL1       -0.0836
     34 C           8.7497    3.8362    0.0000 C.3     1  UNL1       -0.0553
     35 C           5.9223    6.0611    0.0000 C.3     1  UNL1       -0.0403
     36 C           7.7764    7.1604    0.0000 C.3     1  UNL1       -0.0362
     37 C           5.9014    7.1459    0.0000 C.3     1  UNL1       -0.0343
     38 C           8.8046   -0.1403    0.0000 C.3     1  UNL1       -0.0572
     39 C           8.3113   -1.0102    0.0000 C.3     1  UNL1       -0.0572
     40 C           6.8347    7.6992    0.0000 C.3     1  UNL1       -0.0468
     41 C           8.6324    6.5854    0.0000 C.2     1  UNL1        0.3115
     42 C           5.3881    8.0041    0.0000 C.3     1  UNL1       -0.0598
     43 C           4.9015    7.1305    0.0000 C.3     1  UNL1       -0.0598
     44 C           6.0010   -2.1941    0.0000 C.3     1  UNL1        0.1886
     45 C           6.0010   -3.1941    0.0000 C.3     1  UNL1        0.1406
     46 C           5.1350   -3.6941    0.0000 C.3     1  UNL1        0.1144
     47 C           4.2690   -2.1941    0.0000 C.3     1  UNL1        0.1130
     48 C           4.2690   -3.1941    0.0000 C.3     1  UNL1        0.1119
     49 C           3.4030   -1.6941    0.0000 C.3     1  UNL1        0.0730
     50 C           6.8671   -4.6941    0.0000 C.3     1  UNL1        0.1885
     51 C           7.7331   -5.1941    0.0000 C.3     1  UNL1        0.1341
     52 C           7.7331   -6.1941    0.0000 C.3     1  UNL1        0.1141
     53 C           6.0010   -6.1941    0.0000 C.3     1  UNL1        0.1130
     54 C           6.8671   -6.6941    0.0000 C.3     1  UNL1        0.1119
     55 C           5.1350   -6.6941    0.0000 C.3     1  UNL1        0.0730
     56 H           7.6385    2.0749    0.0000 H       1  UNL1        0.0315
     57 H           8.5314    0.5176    0.0000 H       1  UNL1        0.0312
     58 H           9.2921    2.4037    0.0000 H       1  UNL1        0.0271
     59 H           8.8824    3.0888    0.0000 H       1  UNL1        0.0271
     60 H           8.9079    0.8800    0.0000 H       1  UNL1        0.0268
     61 H           9.3017    1.5743    0.0000 H       1  UNL1        0.0268
     62 H           5.4251    3.1047    0.0000 H       1  UNL1        0.0310
     63 H           5.8263    2.4160    0.0000 H       1  UNL1        0.0310
     64 H           5.7398    1.5230    0.0000 H       1  UNL1        0.0271
     65 H           5.3300    0.8379    0.0000 H       1  UNL1        0.0271
     66 H           6.1502    5.1023    0.0000 H       1  UNL1        0.0357
     67 H           8.8791    3.9319    0.0000 H       1  UNL1        0.0274
     68 H           9.2836    4.6202    0.0000 H       1  UNL1        0.0274
     69 H           8.8623    2.5734    0.0000 H       1  UNL1        0.0235
     70 H           9.3624    3.2936    0.0000 H       1  UNL1        0.0235
     71 H           8.6422    3.7937    0.0000 H       1  UNL1        0.0235
     72 H           7.4046   -1.0031    0.0000 H       1  UNL1        0.0602
     73 H           9.2868    5.4496    0.0000 H       1  UNL1        0.0276
     74 H           8.8876    6.1409    0.0000 H       1  UNL1        0.0276
     75 H           6.3400    2.5003    0.0000 H       1  UNL1        0.0235
     76 H           5.4922    2.2766    0.0000 H       1  UNL1        0.0235
     77 H           5.7158    1.4288    0.0000 H       1  UNL1        0.0235
     78 H           5.3199   -0.0349    0.0000 H       1  UNL1        0.0290
     79 H           5.7137   -0.7293    0.0000 H       1  UNL1        0.0290
     80 H           5.4941    4.3073    0.0000 H       1  UNL1        0.0572
     81 H           8.6444    3.2252    0.0000 H       1  UNL1        0.0238
     82 H           9.3607    3.7309    0.0000 H       1  UNL1        0.0238
     83 H           8.8550    4.4472    0.0000 H       1  UNL1        0.0238
     84 H           5.3095    6.1554    0.0000 H       1  UNL1        0.0276
     85 H           5.7246    5.4735    0.0000 H       1  UNL1        0.0276
     86 H           8.3869    7.0519    0.0000 H       1  UNL1        0.0276
     87 H           7.9877    7.7433    0.0000 H       1  UNL1        0.0276
     88 H           8.8094   -0.7603    0.0000 H       1  UNL1        0.0236
     89 H           9.4246   -0.1355    0.0000 H       1  UNL1        0.0236
     90 H           8.7998    0.4797    0.0000 H       1  UNL1        0.0236
     91 H           7.7767   -1.3243    0.0000 H       1  UNL1        0.0236
     92 H           8.6254   -1.5447    0.0000 H       1  UNL1        0.0236
     93 H           8.8458   -0.6960    0.0000 H       1  UNL1        0.0236
     94 H           7.2302    8.1767    0.0000 H       1  UNL1        0.0271
     95 H           6.4319    8.1706    0.0000 H       1  UNL1        0.0271
     96 H           4.8920    7.7504    0.0000 H       1  UNL1        0.0235
     97 H           4.2816    7.1209    0.0000 H       1  UNL1        0.0235
     98 H           4.9111    6.5106    0.0000 H       1  UNL1        0.0235
     99 H           5.9202    8.3224    0.0000 H       1  UNL1        0.0235
    100 H           5.0699    8.5362    0.0000 H       1  UNL1        0.0235
    101 H           4.8560    7.6859    0.0000 H       1  UNL1        0.0235
    102 H           6.0010   -1.5741    0.0000 H       1  UNL1        0.0938
    103 H           9.1542    7.9015    0.0000 H       1  UNL1        0.2951
    104 H           6.0010   -3.8141    0.0000 H       1  UNL1        0.0675
    105 H           4.5981   -4.0041    0.0000 H       1  UNL1        0.0648
    106 H           4.2690   -1.5741    0.0000 H       1  UNL1        0.0647
    107 H           3.7320   -2.8841    0.0000 H       1  UNL1        0.0647
    108 H           3.8015   -1.2192    0.0000 H       1  UNL1        0.0584
    109 H           3.0044   -1.2192    0.0000 H       1  UNL1        0.0584
    110 H           7.4040   -4.3841    0.0000 H       1  UNL1        0.0938
    111 H           4.5981   -5.0041    0.0000 H       1  UNL1        0.2100
    112 H           3.4030   -4.3141    0.0000 H       1  UNL1        0.2100
    113 H           8.2700   -5.5041    0.0000 H       1  UNL1        0.0671
    114 H           2.0000   -1.8841    0.0000 H       1  UNL1        0.2095
    115 H           7.7331   -6.8141    0.0000 H       1  UNL1        0.0648
    116 H           5.4641   -5.8841    0.0000 H       1  UNL1        0.0647
    117 H           6.3301   -7.0041    0.0000 H       1  UNL1        0.0647
    118 H           8.5991   -4.0741    0.0000 H       1  UNL1        0.2101
    119 H           4.9230   -6.1115    0.0000 H       1  UNL1        0.0584
    120 H           4.5244   -6.8018    0.0000 H       1  UNL1        0.0584
    121 H           9.1360   -6.3841    0.0000 H       1  UNL1        0.2100
    122 H           7.4040   -8.0041    0.0000 H       1  UNL1        0.2100
    123 H           5.6720   -8.0041    0.0000 H       1  UNL1        0.2095
@<TRIPOS>BOND
     1    29     1    1
     2    44     1    1
     3     2    41    1
     4     2   103    1
     5     3    41    2
     6     4    44    1
     7     4    47    1
     8    45     5    1
     9    50     5    1
    10    46     6    1
    11     6   111    1
    12    48     7    1
    13     7   112    1
    14     8    50    1
    15     8    53    1
    16     9    49    1
    17     9   114    1
    18    51    10    1
    19    10   118    1
    20    52    11    1
    21    11   121    1
    22    54    12    1
    23    12   122    1
    24    13    55    1
    25    13   123    1
    26    14    15    1
    27    14    17    1
    28    14    19    1
    29    14    28    1
    30    15    16    1
    31    15    23    1
    32    15    56    1
    33    16    18    1
    34    16    24    1
    35    16    31    1
    36    17    22    1
    37    17    26    1
    38    17    34    1
    39    18    20    1
    40    18    21    1
    41    18    57    1
    42    19    21    1
    43    19    58    1
    44    19    59    1
    45    20    29    1
    46    20    38    1
    47    20    39    1
    48    21    60    1
    49    21    61    1
    50    22    25    1
    51    22    33    2
    52    23    33    1
    53    23    62    1
    54    23    63    1
    55    24    32    1
    56    24    64    1
    57    24    65    1
    58    25    27    1
    59    25    35    1
    60    25    66    1
    61    26    30    1
    62    26    67    1
    63    26    68    1
    64    27    30    1
    65    27    36    1
    66    27    41    1
    67    28    69    1
    68    28    70    1
    69    28    71    1
    70    29    32    1
    71    29    72    1
    72    30    73    1
    73    30    74    1
    74    31    75    1
    75    31    76    1
    76    31    77    1
    77    32    78    1
    78    32    79    1
    79    33    80    1
    80    34    81    1
    81    34    82    1
    82    34    83    1
    83    35    37    1
    84    35    84    1
    85    35    85    1
    86    36    40    1
    87    36    86    1
    88    36    87    1
    89    37    40    1
    90    37    42    1
    91    37    43    1
    92    38    88    1
    93    38    89    1
    94    38    90    1
    95    39    91    1
    96    39    92    1
    97    39    93    1
    98    40    94    1
    99    40    95    1
   100    42    99    1
   101    42   100    1
   102    42   101    1
   103    43    96    1
   104    43    97    1
   105    43    98    1
   106    44    45    1
   107    44   102    1
   108    45    46    1
   109    45   104    1
   110    46    48    1
   111    46   105    1
   112    47    48    1
   113    47    49    1
   114    47   106    1
   115    48   107    1
   116    49   108    1
   117    49   109    1
   118    50    51    1
   119    50   110    1
   120    51    52    1
   121    51   113    1
   122    52    54    1
   123    52   115    1
   124    53    54    1
   125    53    55    1
   126    53   116    1
   127    54   117    1
   128    55   119    1
   129    55   120    1
