@<TRIPOS>MOLECULE
IMPHY012940
 48 52 0 0 0
SMALL
GASTEIGER

@<TRIPOS>ATOM
      1 O           2.8152    0.8453    0.0000 O.2     1  UNL1       -0.2947
      2 O           7.2641    2.0190    0.0000 O.3     1  UNL1       -0.4672
      3 O           6.3981    0.5190    0.0000 O.2     1  UNL1       -0.2498
      4 N           4.6660   -0.4810    0.0000 N.3     1  UNL1       -0.2888
      5 N           4.6660    3.5190    0.0000 N.2     1  UNL1       -0.2584
      6 C           4.6660    1.5190    0.0000 C.3     1  UNL1        0.0796
      7 C           5.5321    2.0190    0.0000 C.3     1  UNL1        0.1255
      8 C           2.8820   -1.5295    0.0000 C.3     1  UNL1        0.0051
      9 C           3.8000    0.0190    0.0000 C.3     1  UNL1        0.0707
     10 C           2.8900   -0.4879    0.0000 C.3     1  UNL1       -0.0225
     11 C           5.5321    1.0190    0.0000 C.3     1  UNL1       -0.0222
     12 C           3.8000    1.0190    0.0000 C.2     1  UNL1        0.1622
     13 C           5.5321    0.0190    0.0000 C.3     1  UNL1        0.0011
     14 C           3.7841   -2.0503    0.0000 C.2     1  UNL1       -0.0552
     15 C           4.6821   -1.5225    0.0000 C.3     1  UNL1        0.0210
     16 C           3.8000    2.0190    0.0000 C.ar    1  UNL1       -0.0072
     17 C           5.5321    3.0190    0.0000 C.2     1  UNL1        0.0245
     18 C           6.3981    1.5190    0.0000 C.2     1  UNL1        0.3202
     19 C           3.8000    3.0190    0.0000 C.ar    1  UNL1        0.0677
     20 C           3.7879   -3.0503    0.0000 C.2     1  UNL1       -0.0863
     21 C           2.9061    1.4843    0.0000 C.ar    1  UNL1       -0.0556
     22 C           2.9061    3.5536    0.0000 C.ar    1  UNL1       -0.0360
     23 C           2.0000    1.9982    0.0000 C.ar    1  UNL1       -0.0613
     24 C           2.9238   -3.5536    0.0000 C.3     1  UNL1       -0.0465
     25 C           2.0000    3.0398    0.0000 C.ar    1  UNL1       -0.0597
     26 C           8.1301    1.5190    0.0000 C.3     1  UNL1        0.0817
     27 H           2.1442   -1.9516    0.0000 H       1  UNL1        0.0361
     28 H           3.0639    0.4440    0.0000 H       1  UNL1        0.0542
     29 H           2.6855    0.0974    0.0000 H       1  UNL1        0.0291
     30 H           2.2784   -0.5893    0.0000 H       1  UNL1        0.0291
     31 H           6.1426    0.9113    0.0000 H       1  UNL1        0.0291
     32 H           5.7441    1.6016    0.0000 H       1  UNL1        0.0291
     33 H           5.7441   -0.5636    0.0000 H       1  UNL1        0.0427
     34 H           6.1426    0.1266    0.0000 H       1  UNL1        0.0427
     35 H           4.9001   -2.1029    0.0000 H       1  UNL1        0.0473
     36 H           5.2912   -1.4070    0.0000 H       1  UNL1        0.0473
     37 H           6.0690    3.3290    0.0000 H       1  UNL1        0.0794
     38 H           4.3260   -3.3582    0.0000 H       1  UNL1        0.0569
     39 H           2.9132    0.8643    0.0000 H       1  UNL1        0.0621
     40 H           2.9132    4.1736    0.0000 H       1  UNL1        0.0639
     41 H           1.4643    1.6861    0.0000 H       1  UNL1        0.0618
     42 H           2.6117   -3.0179    0.0000 H       1  UNL1        0.0272
     43 H           2.3881   -3.8657    0.0000 H       1  UNL1        0.0272
     44 H           3.2359   -4.0894    0.0000 H       1  UNL1        0.0272
     45 H           1.4643    3.3518    0.0000 H       1  UNL1        0.0618
     46 H           7.8201    0.9820    0.0000 H       1  UNL1        0.0661
     47 H           8.6671    1.2090    0.0000 H       1  UNL1        0.0661
     48 H           8.4401    2.0559    0.0000 H       1  UNL1        0.0661
@<TRIPOS>BOND
     1     1    12    2
     2     2    18    1
     3     2    26    1
     4     3    18    2
     5     4     9    1
     6     4    13    1
     7     4    15    1
     8     5    17    2
     9     5    19    1
    10     6     7    1
    11     6    11    1
    12     6    12    1
    13     6    16    1
    14     7     8    1
    15     7    17    1
    16     7    18    1
    17     8    10    1
    18     8    14    1
    19     8    27    1
    20     9    10    1
    21     9    12    1
    22     9    28    1
    23    10    29    1
    24    10    30    1
    25    11    13    1
    26    11    31    1
    27    11    32    1
    28    13    33    1
    29    13    34    1
    30    14    15    1
    31    14    20    2
    32    15    35    1
    33    15    36    1
    34    16    19   ar
    35    16    21   ar
    36    17    37    1
    37    19    22   ar
    38    20    24    1
    39    20    38    1
    40    21    23   ar
    41    21    39    1
    42    22    25   ar
    43    22    40    1
    44    23    25   ar
    45    23    41    1
    46    24    42    1
    47    24    43    1
    48    24    44    1
    49    25    45    1
    50    26    46    1
    51    26    47    1
    52    26    48    1
