@<TRIPOS>MOLECULE
IMPHY007482
 44 44 0 0 0
SMALL
GASTEIGER

@<TRIPOS>ATOM
      1 S           6.0010   -0.5950    0.0000 S.3     1  UNL1       -0.0728
      2 S           4.2690    3.4050    0.0000 S.3     1  UNL1       -0.1641
      3 S           7.7331    2.4050    0.0000 S.3     1  UNL1        0.0672
      4 O           4.2690   -0.5950    0.0000 O.3     1  UNL1       -0.3549
      5 O           4.2690   -3.5950    0.0000 O.3     1  UNL1       -0.3865
      6 O           2.5369   -2.5950    0.0000 O.3     1  UNL1       -0.3865
      7 O           6.0010   -2.5950    0.0000 O.3     1  UNL1       -0.3857
      8 O           2.5369    0.4050    0.0000 O.3     1  UNL1       -0.3924
      9 O           6.8671    1.9050    0.0000 O.2     1  UNL1       -0.2480
     10 O           8.5991    2.9050    0.0000 O.co2   1  UNL1       -0.2572
     11 O           7.2331    3.2710    0.0000 O.2     1  UNL1       -0.3344
     12 O           8.2331    1.5390    0.0000 O.2     1  UNL1       -0.3344
     13 N           6.8671    0.9050    0.0000 N.2     1  UNL1       -0.0521
     14 C           4.2690   -2.5950    0.0000 C.3     1  UNL1        0.1126
     15 C           3.4030   -2.0950    0.0000 C.3     1  UNL1        0.1118
     16 C           5.1350   -2.0950    0.0000 C.3     1  UNL1        0.1192
     17 C           3.4030   -1.0950    0.0000 C.3     1  UNL1        0.1115
     18 C           5.1350   -1.0950    0.0000 C.3     1  UNL1        0.1384
     19 C           2.5369   -0.5950    0.0000 C.3     1  UNL1        0.0730
     20 C           6.0010    0.4050    0.0000 C.2     1  UNL1        0.1181
     21 C           5.1350    0.9050    0.0000 C.3     1  UNL1       -0.0002
     22 C           5.1350    1.9050    0.0000 C.3     1  UNL1       -0.0380
     23 C           4.2690    2.4050    0.0000 C.3     1  UNL1       -0.0062
     24 C           3.4030    3.9050    0.0000 C.3     1  UNL1       -0.0181
     25 H           4.8059   -2.9050    0.0000 H       1  UNL1        0.0647
     26 H           3.4030   -2.7150    0.0000 H       1  UNL1        0.0647
     27 H           5.6720   -1.7850    0.0000 H       1  UNL1        0.0655
     28 H           3.4030   -0.4750    0.0000 H       1  UNL1        0.0646
     29 H           5.1350   -0.4750    0.0000 H       1  UNL1        0.0743
     30 H           1.9264   -0.4873    0.0000 H       1  UNL1        0.0584
     31 H           2.3249   -1.1776    0.0000 H       1  UNL1        0.0584
     32 H           3.7320   -3.9050    0.0000 H       1  UNL1        0.2100
     33 H           2.0000   -2.2850    0.0000 H       1  UNL1        0.2100
     34 H           6.5380   -2.2850    0.0000 H       1  UNL1        0.2100
     35 H           4.5244    1.0127    0.0000 H       1  UNL1        0.0335
     36 H           4.9230    0.3224    0.0000 H       1  UNL1        0.0335
     37 H           2.0000    0.7150    0.0000 H       1  UNL1        0.2095
     38 H           5.7456    1.7973    0.0000 H       1  UNL1        0.0277
     39 H           5.3471    2.4876    0.0000 H       1  UNL1        0.0277
     40 H           3.6584    2.5127    0.0000 H       1  UNL1        0.0376
     41 H           4.0569    1.8224    0.0000 H       1  UNL1        0.0376
     42 H           3.7130    4.4419    0.0000 H       1  UNL1        0.0340
     43 H           2.8660    4.2150    0.0000 H       1  UNL1        0.0340
     44 H           3.0930    3.3681    0.0000 H       1  UNL1        0.0340
@<TRIPOS>UNITY_ATOM_ATTR
10 1
charge -1
@<TRIPOS>BOND
     1    18     1    1
     2     1    20    1
     3     2    23    1
     4     2    24    1
     5     3     9    1
     6     3    10    1
     7     3    11    2
     8     3    12    2
     9     4    17    1
    10     4    18    1
    11    14     5    1
    12     5    32    1
    13    15     6    1
    14     6    33    1
    15    16     7    1
    16     7    34    1
    17     8    19    1
    18     8    37    1
    19     9    13    1
    20    13    20    2
    21    14    15    1
    22    14    16    1
    23    14    25    1
    24    15    17    1
    25    15    26    1
    26    16    18    1
    27    16    27    1
    28    17    19    1
    29    17    28    1
    30    18    29    1
    31    19    30    1
    32    19    31    1
    33    20    21    1
    34    21    22    1
    35    21    35    1
    36    21    36    1
    37    22    23    1
    38    22    38    1
    39    22    39    1
    40    23    40    1
    41    23    41    1
    42    24    42    1
    43    24    43    1
    44    24    44    1
