@<TRIPOS>MOLECULE
IMPHY000509
 57 64 0 0 0
SMALL
GASTEIGER

@<TRIPOS>ATOM
      1 O        2406.9500 2155.1900    0.0000 O.3     1  UNL1       -0.1716
      2 C        2456.3800 2223.1800    0.0000 C.3     1  UNL1        0.3494
      3 C        2476.1300 2257.6200    0.0000 C.3     1  UNL1        0.1289
      4 C        2455.6800 2291.8600    0.0000 C.ar    1  UNL1        0.0318
      5 C        2421.0400 2271.6100    0.0000 C.ar    1  UNL1        0.1800
      6 O        2386.5000 2215.1400    0.0000 O.3     1  UNL1       -0.4459
      7 C        2386.5000 2291.3600    0.0000 C.ar    1  UNL1        0.2675
      8 O        2351.8600 2271.3200    0.0000 O.3     1  UNL1       -0.2799
      9 C        2386.5000 2331.0700    0.0000 C.ar    1  UNL1        0.2375
     10 C        2421.0400 2351.1200    0.0000 C.ar    1  UNL1        0.0517
     11 C        2455.6800 2331.7600    0.0000 C.ar    1  UNL1        0.0785
     12 C        2505.0100 2364.0200    0.0000 C.2     1  UNL1        0.3412
     13 O        2465.1100 2360.5500    0.0000 O.2     1  UNL1       -0.2449
     14 O        2424.0200 2396.8700    0.0000 O.3     1  UNL1       -0.4437
     15 C        2475.6300 2476.8700    0.0000 C.3     1  UNL1        0.2338
     16 C        2510.2700 2457.3200    0.0000 C.3     1  UNL1        0.2403
     17 C        2544.8100 2477.6700    0.0000 C.3     1  UNL1        0.2724
     18 O        2604.6700 2403.9200    0.0000 O.3     1  UNL1       -0.4399
     19 C        2603.4700 2327.6900    0.0000 C.2     1  UNL1        0.3379
     20 C        2516.1300 2257.7200    0.0000 C.2     1  UNL1        0.0666
     21 C        2536.3800 2223.5700    0.0000 C.2     1  UNL1        0.0481
     22 C        2516.4300 2189.1300    0.0000 C.2     1  UNL1        0.2619
     23 C        2476.4300 2188.9300    0.0000 C.3     1  UNL1        0.4636
     24 O        2482.6800 2149.4300    0.0000 O.2     1  UNL1       -0.2600
     25 O        2438.8100 2175.2400    0.0000 O.2     1  UNL1       -0.2600
     26 O        2535.7800 2154.1900    0.0000 O.2     1  UNL1       -0.2832
     27 O        2639.1100 2309.5300    0.0000 O.2     1  UNL1       -0.2452
     28 C        2544.8100 2517.2700    0.0000 C.3     1  UNL1        0.3344
     29 O        2510.2700 2536.8200    0.0000 O.3     1  UNL1       -0.3125
     30 C        2475.6300 2516.8700    0.0000 C.3     1  UNL1        0.2049
     31 C        2383.8200 2589.3300    0.0000 C.3     1  UNL1        0.2420
     32 O        2434.2400 2631.5100    0.0000 O.3     1  UNL1       -0.4426
     33 C        2423.6200 2703.0800    0.0000 C.2     1  UNL1        0.3415
     34 O        2386.3000 2717.3700    0.0000 O.2     1  UNL1       -0.2449
     35 C        2477.6200 2746.9500    0.0000 C.ar    1  UNL1        0.0822
     36 C        2517.7200 2746.9500    0.0000 C.ar    1  UNL1        0.0520
     37 C        2544.4200 2665.5600    0.0000 C.ar    1  UNL1        0.0520
     38 C        2544.4200 2625.3600    0.0000 C.ar    1  UNL1        0.0823
     39 C        2508.4900 2583.2800    0.0000 C.2     1  UNL1        0.3433
     40 O        2611.7100 2543.4700    0.0000 O.3     1  UNL1       -0.4175
     41 O        2547.3000 2593.0000    0.0000 O.2     1  UNL1       -0.2448
     42 C        2578.9600 2606.0000    0.0000 C.ar    1  UNL1        0.0520
     43 C        2613.5000 2626.1500    0.0000 C.ar    1  UNL1        0.2377
     44 C        2613.5000 2665.9600    0.0000 C.ar    1  UNL1        0.2727
     45 C        2578.9600 2685.4100    0.0000 C.ar    1  UNL1        0.2377
     46 O        2578.9600 2725.4100    0.0000 O.3     1  UNL1       -0.2830
     47 O        2648.1400 2685.9100    0.0000 O.3     1  UNL1       -0.2797
     48 O        2648.1400 2606.2000    0.0000 O.3     1  UNL1       -0.2830
     49 C        2537.7700 2781.1900    0.0000 C.ar    1  UNL1        0.2377
     50 O        2577.7700 2781.1900    0.0000 O.3     1  UNL1       -0.2830
     51 C        2517.7200 2815.6300    0.0000 C.ar    1  UNL1        0.2727
     52 C        2477.6200 2815.6300    0.0000 C.ar    1  UNL1        0.2377
     53 C        2457.6700 2781.1900    0.0000 C.ar    1  UNL1        0.0520
     54 O        2458.1600 2850.5700    0.0000 O.3     1  UNL1       -0.2830
     55 O        2537.7700 2850.2700    0.0000 O.3     1  UNL1       -0.2797
     56 O        2510.2700 2417.3200    0.0000 O.3     1  UNL1       -0.2150
     57 O        2351.8600 2351.0200    0.0000 O.3     1  UNL1       -0.2830
@<TRIPOS>BOND
     1     1     2    1
     2     2     3    1
     3     2     6    1
     4     2    23    1
     5     3     4    1
     6     3    20    1
     7     4     5   ar
     8     4    11   ar
     9     5     7   ar
    10     6     5    1
    11     7     8    1
    12     7     9   ar
    13     9    57    1
    14    10     9   ar
    15    11    10   ar
    16    11    12    1
    17    12    13    2
    18    12    14    1
    19    14    15    1
    20    15    16    1
    21    15    30    1
    22    16    56    1
    23    17    16    1
    24    17    28    1
    25    18    17    1
    26    19    18    1
    27    19    27    2
    28    20    19    1
    29    20    21    2
    30    22    21    1
    31    22    26    2
    32    23    22    1
    33    23    24    1
    34    23    25    1
    35    28    29    1
    36    28    40    1
    37    30    29    1
    38    30    31    1
    39    31    32    1
    40    32    33    1
    41    33    34    2
    42    33    35    1
    43    35    36   ar
    44    35    53   ar
    45    36    49   ar
    46    37    36    1
    47    37    45   ar
    48    38    37   ar
    49    38    42   ar
    50    39    38    1
    51    39    41    2
    52    40    39    1
    53    42    43   ar
    54    43    44   ar
    55    43    48    1
    56    44    47    1
    57    45    44   ar
    58    45    46    1
    59    49    50    1
    60    49    51   ar
    61    51    55    1
    62    52    51   ar
    63    52    54    1
    64    53    52   ar
