@<TRIPOS>MOLECULE
IMPHY001944
 50 53 0 0 0
SMALL
GASTEIGER

@<TRIPOS>ATOM
      1 O           5.1350   -1.3659    0.0000 O.3     1  UNL1       -0.3221
      2 O           6.8671   -1.3659    0.0000 O.3     1  UNL1       -0.4569
      3 O           5.1350   -4.3659    0.0000 O.3     1  UNL1       -0.3863
      4 O           6.8671   -3.3659    0.0000 O.3     1  UNL1       -0.3829
      5 O           3.4030   -3.3659    0.0000 O.3     1  UNL1       -0.3860
      6 O           2.5369   -1.8659    0.0000 O.3     1  UNL1       -0.4788
      7 O           3.4030   -0.3659    0.0000 O.2     1  UNL1       -0.2480
      8 O           8.6431    1.6410    0.0000 O.2     1  UNL1       -0.4507
      9 O           8.5991   -0.3659    0.0000 O.3     1  UNL1       -0.5009
     10 O           5.1350    1.6341    0.0000 O.3     1  UNL1       -0.5058
     11 O           5.9793    3.1656    0.0000 O.2     1  UNL1       -0.2869
     12 C           5.1350   -3.3659    0.0000 C.3     1  UNL1        0.1157
     13 C           6.0010   -2.8659    0.0000 C.3     1  UNL1        0.1455
     14 C           4.2690   -2.8659    0.0000 C.3     1  UNL1        0.1202
     15 C           6.0010   -1.8659    0.0000 C.3     1  UNL1        0.2314
     16 C           4.2690   -1.8659    0.0000 C.3     1  UNL1        0.1869
     17 C           3.4030   -1.3659    0.0000 C.2     1  UNL1        0.3367
     18 C           6.8671   -0.3659    0.0000 C.ar    1  UNL1        0.1724
     19 C           7.7331    0.1341    0.0000 C.ar    1  UNL1        0.2027
     20 C           6.0010    0.1341    0.0000 C.ar    1  UNL1        0.0263
     21 C           7.7331    1.1341    0.0000 C.ar    1  UNL1        0.1876
     22 C           6.8671    1.6341    0.0000 C.ar    1  UNL1        0.1091
     23 C           6.0010    1.1341    0.0000 C.ar    1  UNL1        0.1349
     24 C           6.8510    2.6756    0.0000 C.ar    1  UNL1        0.1967
     25 C           8.6511    2.6826    0.0000 C.ar    1  UNL1        0.1394
     26 C           7.7490    3.2034    0.0000 C.ar    1  UNL1        0.0288
     27 C           9.5191    3.1792    0.0000 C.ar    1  UNL1        0.0174
     28 C          10.3832    2.6759    0.0000 C.ar    1  UNL1       -0.0511
     29 C           9.5229    4.1792    0.0000 C.ar    1  UNL1       -0.0511
     30 C          11.2511    3.1726    0.0000 C.ar    1  UNL1       -0.0611
     31 C          10.3909    4.6759    0.0000 C.ar    1  UNL1       -0.0611
     32 C          11.2550    4.1725    0.0000 C.ar    1  UNL1       -0.0617
     33 H           5.6720   -3.6759    0.0000 H       1  UNL1        0.0648
     34 H           6.5380   -2.5559    0.0000 H       1  UNL1        0.0683
     35 H           4.2690   -3.4859    0.0000 H       1  UNL1        0.0652
     36 H           6.0010   -1.2459    0.0000 H       1  UNL1        0.1084
     37 H           4.2690   -1.2459    0.0000 H       1  UNL1        0.0742
     38 H           5.6720   -4.6759    0.0000 H       1  UNL1        0.2100
     39 H           7.4040   -3.0559    0.0000 H       1  UNL1        0.2102
     40 H           3.4030   -3.9859    0.0000 H       1  UNL1        0.2100
     41 H           5.4641   -0.1759    0.0000 H       1  UNL1        0.0692
     42 H           2.0000   -1.5559    0.0000 H       1  UNL1        0.2951
     43 H           7.7466    3.8234    0.0000 H       1  UNL1        0.0693
     44 H           8.5991   -0.9859    0.0000 H       1  UNL1        0.2924
     45 H           4.5981    1.3241    0.0000 H       1  UNL1        0.2922
     46 H          10.3808    2.0559    0.0000 H       1  UNL1        0.0625
     47 H           8.9872    4.4913    0.0000 H       1  UNL1        0.0625
     48 H          11.7868    2.8605    0.0000 H       1  UNL1        0.0618
     49 H          10.3933    5.2959    0.0000 H       1  UNL1        0.0618
     50 H          11.7931    4.4805    0.0000 H       1  UNL1        0.0618
@<TRIPOS>BOND
     1     1    15    1
     2     1    16    1
     3    15     2    1
     4     2    18    1
     5    12     3    1
     6     3    38    1
     7    13     4    1
     8     4    39    1
     9    14     5    1
    10     5    40    1
    11     6    17    1
    12     6    42    1
    13     7    17    2
    14     8    21   ar
    15     8    25   ar
    16     9    19    1
    17     9    44    1
    18    10    23    1
    19    10    45    1
    20    11    24    2
    21    12    13    1
    22    12    14    1
    23    12    33    1
    24    13    15    1
    25    13    34    1
    26    14    16    1
    27    14    35    1
    28    15    36    1
    29    16    17    1
    30    16    37    1
    31    18    19   ar
    32    18    20   ar
    33    19    21   ar
    34    20    23   ar
    35    20    41    1
    36    21    22   ar
    37    22    23   ar
    38    22    24   ar
    39    24    26   ar
    40    25    26   ar
    41    25    27    1
    42    26    43    1
    43    27    28   ar
    44    27    29   ar
    45    28    30   ar
    46    28    46    1
    47    29    31   ar
    48    29    47    1
    49    30    32   ar
    50    30    48    1
    51    31    32   ar
    52    31    49    1
    53    32    50    1
