@<TRIPOS>MOLECULE
IMPHY005253
 32 33 0 0 0
SMALL
GASTEIGER

@<TRIPOS>ATOM
      1 O           5.5404    1.7361    0.0000 O.3     1  UNL1       -0.4600
      2 O           2.3100    0.8123    0.0000 O.3     1  UNL1       -0.3853
      3 O           6.9231    0.8123    0.0000 O.2     1  UNL1       -0.2488
      4 O           5.1113   -3.1188    0.0000 O.2     1  UNL1       -0.2942
      5 N           4.6166   -0.4943    0.0000 N.ar    1  UNL1       -0.3287
      6 C           3.6927    1.7361    0.0000 C.3     1  UNL1        0.0246
      7 C           3.3100    0.8123    0.0000 C.3     1  UNL1        0.1010
      8 C           4.6166    2.1188    0.0000 C.3     1  UNL1        0.1056
      9 C           3.6927   -0.1116    0.0000 C.ar    1  UNL1        0.0489
     10 C           2.9856    2.4432    0.0000 C.3     1  UNL1       -0.0563
     11 C           5.5404   -0.1116    0.0000 C.3     1  UNL1        0.1207
     12 C           4.6166    3.1188    0.0000 C.3     1  UNL1       -0.0274
     13 C           3.0490   -0.8692    0.0000 C.ar    1  UNL1       -0.0377
     14 C           4.5360   -1.4851    0.0000 C.ar    1  UNL1        0.0823
     15 C           5.9231    0.8123    0.0000 C.2     1  UNL1        0.3273
     16 C           3.5692   -1.7163    0.0000 C.ar    1  UNL1       -0.0333
     17 C           5.2953   -2.1359    0.0000 C.2     1  UNL1        0.1665
     18 H           3.8136    2.3442    0.0000 H       1  UNL1        0.0363
     19 H           2.9656    1.3278    0.0000 H       1  UNL1        0.0662
     20 H           5.1321    2.4633    0.0000 H       1  UNL1        0.0734
     21 H           3.4240    2.8816    0.0000 H       1  UNL1        0.0234
     22 H           2.5472    2.8816    0.0000 H       1  UNL1        0.0234
     23 H           2.5472    2.0048    0.0000 H       1  UNL1        0.0234
     24 H           5.6214   -0.7263    0.0000 H       1  UNL1        0.0607
     25 H           6.1551   -0.1926    0.0000 H       1  UNL1        0.0607
     26 H           5.2366    3.1188    0.0000 H       1  UNL1        0.0265
     27 H           4.6166    3.7388    0.0000 H       1  UNL1        0.0265
     28 H           3.9966    3.1188    0.0000 H       1  UNL1        0.0265
     29 H           2.4309   -0.8216    0.0000 H       1  UNL1        0.0636
     30 H           3.3319   -2.2891    0.0000 H       1  UNL1        0.0640
     31 H           2.0000    1.3492    0.0000 H       1  UNL1        0.2103
     32 H           5.8801   -1.9299    0.0000 H       1  UNL1        0.1097
@<TRIPOS>BOND
     1     1     8    1
     2     1    15    1
     3     7     2    1
     4     2    31    1
     5     3    15    2
     6     4    17    2
     7     5     9   ar
     8     5    11    1
     9     5    14   ar
    10     6     7    1
    11     6     8    1
    12     6    10    1
    13     6    18    1
    14     7     9    1
    15     7    19    1
    16     8    12    1
    17     8    20    1
    18     9    13   ar
    19    10    21    1
    20    10    22    1
    21    10    23    1
    22    11    15    1
    23    11    24    1
    24    11    25    1
    25    12    26    1
    26    12    27    1
    27    12    28    1
    28    13    16   ar
    29    13    29    1
    30    14    16   ar
    31    14    17    1
    32    16    30    1
    33    17    32    1
