@<TRIPOS>MOLECULE
IMPHY009321
 24 24 0 0 0
SMALL
GASTEIGER

@<TRIPOS>ATOM
      1 O           4.5981    1.7500    0.0000 O.3     1  UNL1       -0.4913
      2 O           2.8660    0.7500    0.0000 O.3     1  UNL1       -0.4914
      3 O           6.3301   -1.2500    0.0000 O.3     1  UNL1       -0.4950
      4 C           4.5981    0.7500    0.0000 C.ar    1  UNL1        0.1649
      5 C           3.7320    0.2500    0.0000 C.ar    1  UNL1        0.1617
      6 C           5.4641   -0.7500    0.0000 C.ar    1  UNL1        0.1238
      7 C           5.4641    0.2500    0.0000 C.ar    1  UNL1        0.0254
      8 C           3.7320   -0.7500    0.0000 C.ar    1  UNL1       -0.0129
      9 C           4.5981   -1.2500    0.0000 C.ar    1  UNL1       -0.0163
     10 C           5.4641    2.2500    0.0000 C.3     1  UNL1        0.0790
     11 C           2.0000    0.2500    0.0000 C.3     1  UNL1        0.0790
     12 C           6.3301   -2.2500    0.0000 C.3     1  UNL1        0.0788
     13 H           6.0010    0.5600    0.0000 H       1  UNL1        0.0692
     14 H           3.1951   -1.0600    0.0000 H       1  UNL1        0.0656
     15 H           4.5981   -1.8700    0.0000 H       1  UNL1        0.0655
     16 H           5.7741    1.7131    0.0000 H       1  UNL1        0.0660
     17 H           6.0010    2.5600    0.0000 H       1  UNL1        0.0660
     18 H           5.1541    2.7869    0.0000 H       1  UNL1        0.0660
     19 H           1.6900    0.7869    0.0000 H       1  UNL1        0.0660
     20 H           1.4631   -0.0600    0.0000 H       1  UNL1        0.0660
     21 H           2.3100   -0.2869    0.0000 H       1  UNL1        0.0660
     22 H           5.7101   -2.2500    0.0000 H       1  UNL1        0.0660
     23 H           6.3301   -2.8700    0.0000 H       1  UNL1        0.0660
     24 H           6.9501   -2.2500    0.0000 H       1  UNL1        0.0660
@<TRIPOS>BOND
     1     1     4    1
     2     1    10    1
     3     2     5    1
     4     2    11    1
     5     3     6    1
     6     3    12    1
     7     4     5   ar
     8     4     7   ar
     9     5     8   ar
    10     6     7   ar
    11     6     9   ar
    12     7    13    1
    13     8     9   ar
    14     8    14    1
    15     9    15    1
    16    10    16    1
    17    10    17    1
    18    10    18    1
    19    11    19    1
    20    11    20    1
    21    11    21    1
    22    12    22    1
    23    12    23    1
    24    12    24    1
