@<TRIPOS>MOLECULE
IMPHY009109
 71 75 0 0 0
SMALL
GASTEIGER

@<TRIPOS>ATOM
      1 O           9.4890    3.6146    0.0000 O.3     1  UNL1       -0.3609
      2 O           7.7493    1.6213    0.0000 O.3     1  UNL1       -0.3862
      3 O           9.4775    0.6146    0.0000 O.3     1  UNL1       -0.3865
      4 O          11.2134    1.6079    0.0000 O.3     1  UNL1       -0.3865
      5 O           4.2690   -2.4412    0.0000 O.3     1  UNL1       -0.3339
      6 O           6.0010   -2.4412    0.0000 O.3     1  UNL1       -0.4608
      7 O           4.2690   -5.4412    0.0000 O.3     1  UNL1       -0.3864
      8 O           2.5369   -4.4412    0.0000 O.3     1  UNL1       -0.3866
      9 O           6.9011    2.0830    0.0000 O.2     1  UNL1       -0.4540
     10 O           6.0010   -4.4412    0.0000 O.3     1  UNL1       -0.3829
     11 O          12.0852    3.1046    0.0000 O.3     1  UNL1       -0.3924
     12 O           8.6288    5.1179    0.0000 O.3     1  UNL1       -0.5062
     13 O           5.1647    5.1313    0.0000 O.3     1  UNL1       -0.5058
     14 O           4.2548    3.6379    0.0000 O.2     1  UNL1       -0.2869
     15 C           8.6172    2.1179    0.0000 C.3     1  UNL1        0.1139
     16 C           9.4813    1.6146    0.0000 C.3     1  UNL1        0.1121
     17 C           8.6211    3.1179    0.0000 C.3     1  UNL1        0.1193
     18 C          10.3493    2.1112    0.0000 C.3     1  UNL1        0.1117
     19 C          10.3531    3.1112    0.0000 C.3     1  UNL1        0.1108
     20 C           7.7570    3.6212    0.0000 C.ar    1  UNL1        0.0682
     21 C           4.2690   -4.4412    0.0000 C.3     1  UNL1        0.1151
     22 C           3.4030   -3.9412    0.0000 C.3     1  UNL1        0.1096
     23 C           5.1350   -3.9412    0.0000 C.3     1  UNL1        0.1454
     24 C          11.2211    3.6079    0.0000 C.3     1  UNL1        0.0729
     25 C           3.4030   -2.9412    0.0000 C.3     1  UNL1        0.0883
     26 C           5.1350   -2.9412    0.0000 C.3     1  UNL1        0.2307
     27 C           6.8891    3.1246    0.0000 C.ar    1  UNL1        0.1520
     28 C           7.7609    4.6212    0.0000 C.ar    1  UNL1        0.1296
     29 C           2.5369   -2.4412    0.0000 C.3     1  UNL1       -0.0360
     30 C           6.0250    3.6279    0.0000 C.ar    1  UNL1        0.1058
     31 C           6.8968    5.1246    0.0000 C.ar    1  UNL1        0.0226
     32 C           6.0288    4.6279    0.0000 C.ar    1  UNL1        0.1347
     33 C           6.0010    1.5588    0.0000 C.ar    1  UNL1        0.1392
     34 C           5.1130    3.1246    0.0000 C.ar    1  UNL1        0.1966
     35 C           6.0010   -1.4412    0.0000 C.ar    1  UNL1        0.1240
     36 C           5.1010    2.0830    0.0000 C.ar    1  UNL1        0.0288
     37 C           6.0010    0.5587    0.0000 C.ar    1  UNL1        0.0176
     38 C           6.8671   -0.9413    0.0000 C.ar    1  UNL1       -0.0192
     39 C           5.1350   -0.9413    0.0000 C.ar    1  UNL1       -0.0192
     40 C           6.8671    0.0587    0.0000 C.ar    1  UNL1       -0.0476
     41 C           5.1350    0.0587    0.0000 C.ar    1  UNL1       -0.0476
     42 H           8.0815    2.4300    0.0000 H       1  UNL1        0.0649
     43 H           8.9432    1.3067    0.0000 H       1  UNL1        0.0647
     44 H           8.6244    3.9679    0.0000 H       1  UNL1        0.0676
     45 H          10.3469    1.4913    0.0000 H       1  UNL1        0.0647
     46 H          10.3555    3.7312    0.0000 H       1  UNL1        0.0646
     47 H           3.7320   -4.7512    0.0000 H       1  UNL1        0.0648
     48 H           3.4030   -4.5612    0.0000 H       1  UNL1        0.0646
     49 H           5.1350   -4.5612    0.0000 H       1  UNL1        0.0683
     50 H          11.6214    4.0813    0.0000 H       1  UNL1        0.0584
     51 H          10.8244    4.0844    0.0000 H       1  UNL1        0.0584
     52 H           3.4030   -2.3212    0.0000 H       1  UNL1        0.0621
     53 H           5.1350   -2.3212    0.0000 H       1  UNL1        0.1084
     54 H           7.7469    1.0013    0.0000 H       1  UNL1        0.2100
     55 H          10.0132    0.3025    0.0000 H       1  UNL1        0.2100
     56 H          11.2110    0.9879    0.0000 H       1  UNL1        0.2100
     57 H           2.8469   -1.9043    0.0000 H       1  UNL1        0.0255
     58 H           2.0000   -2.1312    0.0000 H       1  UNL1        0.0255
     59 H           2.2269   -2.9782    0.0000 H       1  UNL1        0.0255
     60 H           6.8992    5.7446    0.0000 H       1  UNL1        0.0691
     61 H           3.7320   -5.7512    0.0000 H       1  UNL1        0.2100
     62 H           2.0000   -4.1312    0.0000 H       1  UNL1        0.2100
     63 H           6.0010   -5.0612    0.0000 H       1  UNL1        0.2102
     64 H          12.6233    3.4125    0.0000 H       1  UNL1        0.2095
     65 H           4.5617    1.7772    0.0000 H       1  UNL1        0.0693
     66 H           8.6312    5.7379    0.0000 H       1  UNL1        0.2922
     67 H           7.4040   -1.2512    0.0000 H       1  UNL1        0.0654
     68 H           4.5981   -1.2512    0.0000 H       1  UNL1        0.0654
     69 H           7.4040    0.3687    0.0000 H       1  UNL1        0.0626
     70 H           4.5981    0.3687    0.0000 H       1  UNL1        0.0626
     71 H           5.1671    5.7512    0.0000 H       1  UNL1        0.2922
@<TRIPOS>BOND
     1     1    17    1
     2     1    19    1
     3    15     2    1
     4     2    54    1
     5    16     3    1
     6     3    55    1
     7    18     4    1
     8     4    56    1
     9     5    25    1
    10     5    26    1
    11    26     6    1
    12     6    35    1
    13    21     7    1
    14     7    61    1
    15    22     8    1
    16     8    62    1
    17     9    27   ar
    18     9    33   ar
    19    23    10    1
    20    10    63    1
    21    11    24    1
    22    11    64    1
    23    12    28    1
    24    12    66    1
    25    13    32    1
    26    13    71    1
    27    14    34    2
    28    15    16    1
    29    15    17    1
    30    15    42    1
    31    16    18    1
    32    16    43    1
    33    17    20    1
    34    17    44    1
    35    18    19    1
    36    18    45    1
    37    19    24    1
    38    19    46    1
    39    20    27   ar
    40    20    28   ar
    41    21    22    1
    42    21    23    1
    43    21    47    1
    44    22    25    1
    45    22    48    1
    46    23    26    1
    47    23    49    1
    48    24    50    1
    49    24    51    1
    50    25    29    1
    51    25    52    1
    52    26    53    1
    53    27    30   ar
    54    28    31   ar
    55    29    57    1
    56    29    58    1
    57    29    59    1
    58    30    32   ar
    59    30    34   ar
    60    31    32   ar
    61    31    60    1
    62    33    36   ar
    63    33    37    1
    64    34    36   ar
    65    35    38   ar
    66    35    39   ar
    67    36    65    1
    68    37    40   ar
    69    37    41   ar
    70    38    40   ar
    71    38    67    1
    72    39    41   ar
    73    39    68    1
    74    40    69    1
    75    41    70    1
