@<TRIPOS>MOLECULE
IMPHY004545
 38 39 0 0 0
SMALL
GASTEIGER

@<TRIPOS>ATOM
      1 O           2.0000   -1.0121    0.0000 O.2     1  UNL1       -0.2960
      2 C           5.6838    0.3723    0.0000 C.3     1  UNL1       -0.0020
      3 C           6.6285    0.6818    0.0000 C.3     1  UNL1       -0.0395
      4 C           5.6888   -0.6277    0.0000 C.2     1  UNL1       -0.0635
      5 C           5.6788    1.3723    0.0000 C.3     1  UNL1       -0.0371
      6 C           4.8989    0.9919    0.0000 C.3     1  UNL1       -0.0245
      7 C           7.2161   -0.1200    0.0000 C.3     1  UNL1       -0.0309
      8 C           6.6365   -0.9277    0.0000 C.2     1  UNL1       -0.0728
      9 C           4.9101   -1.2550    0.0000 C.3     1  UNL1       -0.0269
     10 C           3.9340   -1.0374    0.0000 C.3     1  UNL1       -0.0212
     11 C           6.5423    1.8766    0.0000 C.3     1  UNL1       -0.0619
     12 C           4.8103    1.8680    0.0000 C.3     1  UNL1       -0.0619
     13 C           3.9250    0.7645    0.0000 C.2     1  UNL1       -0.0770
     14 C           3.4957   -0.1386    0.0000 C.2     1  UNL1       -0.0118
     15 C           6.9519   -1.8766    0.0000 C.3     1  UNL1       -0.0435
     16 C           2.4957   -0.1436    0.0000 C.2     1  UNL1        0.1460
     17 H           7.1643    0.9937    0.0000 H       1  UNL1        0.0277
     18 H           6.3746    1.2474    0.0000 H       1  UNL1        0.0277
     19 H           5.6757    1.9923    0.0000 H       1  UNL1        0.0304
     20 H           5.3817    1.3809    0.0000 H       1  UNL1        0.0316
     21 H           4.6271    1.5492    0.0000 H       1  UNL1        0.0316
     22 H           7.6790   -0.5325    0.0000 H       1  UNL1        0.0310
     23 H           7.6749    0.2970    0.0000 H       1  UNL1        0.0310
     24 H           4.6438   -1.8150    0.0000 H       1  UNL1        0.0313
     25 H           5.3967   -1.6392    0.0000 H       1  UNL1        0.0313
     26 H           3.3303   -1.1784    0.0000 H       1  UNL1        0.0317
     27 H           3.9371   -1.6574    0.0000 H       1  UNL1        0.0317
     28 H           6.8550    1.3412    0.0000 H       1  UNL1        0.0233
     29 H           7.0777    2.1893    0.0000 H       1  UNL1        0.0233
     30 H           6.2296    2.4120    0.0000 H       1  UNL1        0.0233
     31 H           5.1176    2.4065    0.0000 H       1  UNL1        0.0233
     32 H           4.2718    2.1753    0.0000 H       1  UNL1        0.0233
     33 H           4.5030    1.3295    0.0000 H       1  UNL1        0.0233
     34 H           3.5361    1.2473    0.0000 H       1  UNL1        0.0576
     35 H           6.3635   -2.0722    0.0000 H       1  UNL1        0.0274
     36 H           7.1474   -2.4650    0.0000 H       1  UNL1        0.0274
     37 H           7.5402   -1.6811    0.0000 H       1  UNL1        0.0274
     38 H           2.1830    0.3918    0.0000 H       1  UNL1        0.1078
@<TRIPOS>BOND
     1     1    16    2
     2     2     3    1
     3     2     4    1
     4     2     5    1
     5     2     6    1
     6     3     7    1
     7     3    17    1
     8     3    18    1
     9     4     8    2
    10     4     9    1
    11     5    11    1
    12     5    12    1
    13     5    19    1
    14     6    13    1
    15     6    20    1
    16     6    21    1
    17     7     8    1
    18     7    22    1
    19     7    23    1
    20     8    15    1
    21     9    10    1
    22     9    24    1
    23     9    25    1
    24    10    14    1
    25    10    26    1
    26    10    27    1
    27    11    28    1
    28    11    29    1
    29    11    30    1
    30    12    31    1
    31    12    32    1
    32    12    33    1
    33    13    14    2
    34    13    34    1
    35    14    16    1
    36    15    35    1
    37    15    36    1
    38    15    37    1
    39    16    38    1
