@<TRIPOS>MOLECULE
IMPHY006665
 48 54 0 0 0
SMALL
GASTEIGER

@<TRIPOS>ATOM
      1 O           4.6503    0.1444    0.0000 O.3     1  UNL1       -0.3578
      2 O           2.0238    1.6800    0.0000 O.3     1  UNL1       -0.3535
      3 O           4.6503    3.1453    0.0000 O.3     1  UNL1       -0.3536
      4 O           2.0520    2.6448    0.0000 O.2     1  UNL1       -0.2909
      5 O           2.5336   -3.7181    0.0000 O.3     1  UNL1       -0.4569
      6 O           4.2742   -4.3506    0.0000 O.2     1  UNL1       -0.2453
      7 C           3.7841    0.6449    0.0000 C.3     1  UNL1        0.1426
      8 C           2.9180    1.1448    0.0000 C.3     1  UNL1        0.1878
      9 C           4.6501    1.1448    0.0000 C.3     1  UNL1        0.1215
     10 C           3.8001   -0.3967    0.0000 C.3     1  UNL1        0.0098
     11 C           4.6501    2.1448    0.0000 C.3     1  UNL1        0.1250
     12 C           2.0080    0.6380    0.0000 C.3     1  UNL1        0.0995
     13 C           3.7841    2.6448    0.0000 C.3     1  UNL1        0.1613
     14 C           2.9021   -0.9244    0.0000 C.3     1  UNL1       -0.0053
     15 C           2.9180    2.1448    0.0000 C.2     1  UNL1        0.2047
     16 C           2.0000   -0.4036    0.0000 C.3     1  UNL1       -0.0161
     17 C           4.7520   -0.9173    0.0000 C.3     1  UNL1       -0.0400
     18 C           3.4420    3.5845    0.0000 C.3     1  UNL1       -0.0079
     19 C           4.8001   -0.3889    0.0000 C.3     1  UNL1       -0.0562
     20 C           2.8937   -2.0094    0.0000 C.2     1  UNL1       -0.0189
     21 C           4.7688   -2.0022    0.0000 C.3     1  UNL1       -0.0202
     22 C           3.8334   -2.5519    0.0000 C.2     1  UNL1        0.0393
     23 C           4.0848    4.3506    0.0000 C.3     1  UNL1       -0.0595
     24 C           2.4573    3.7583    0.0000 C.3     1  UNL1       -0.0595
     25 C           2.0941   -2.7332    0.0000 C.3     1  UNL1        0.1149
     26 C           3.6064   -3.6063    0.0000 C.2     1  UNL1        0.3355
     27 H           5.5001    1.1450    0.0000 H       1  UNL1        0.0654
     28 H           5.5001    2.1447    0.0000 H       1  UNL1        0.0657
     29 H           1.1581    0.6477    0.0000 H       1  UNL1        0.0631
     30 H           2.1643   -1.3466    0.0000 H       1  UNL1        0.0354
     31 H           1.3900   -0.2928    0.0000 H       1  UNL1        0.0297
     32 H           1.7864   -0.9857    0.0000 H       1  UNL1        0.0297
     33 H           5.3645   -1.0139    0.0000 H       1  UNL1        0.0275
     34 H           4.9521   -0.3304    0.0000 H       1  UNL1        0.0275
     35 H           3.0435    3.1096    0.0000 H       1  UNL1        0.0328
     36 H           4.8049   -1.0089    0.0000 H       1  UNL1        0.0236
     37 H           5.4201   -0.3842    0.0000 H       1  UNL1        0.0236
     38 H           4.7953    0.2310    0.0000 H       1  UNL1        0.0236
     39 H           4.9868   -2.5825    0.0000 H       1  UNL1        0.0316
     40 H           5.3779   -1.8866    0.0000 H       1  UNL1        0.0316
     41 H           4.5598    3.9521    0.0000 H       1  UNL1        0.0233
     42 H           4.4834    4.8255    0.0000 H       1  UNL1        0.0233
     43 H           3.6099    4.7491    0.0000 H       1  UNL1        0.0233
     44 H           2.5650    4.3688    0.0000 H       1  UNL1        0.0233
     45 H           1.8467    3.8660    0.0000 H       1  UNL1        0.0233
     46 H           2.3496    3.1477    0.0000 H       1  UNL1        0.0233
     47 H           1.7286   -2.2323    0.0000 H       1  UNL1        0.0746
     48 H           1.5576   -3.0439    0.0000 H       1  UNL1        0.0746
@<TRIPOS>BOND
     1     7     1    1
     2     1     9    1
     3     8     2    1
     4     2    12    1
     5     3    11    1
     6     3    13    1
     7     4    15    2
     8     5    25    1
     9     5    26    1
    10     6    26    2
    11     7     8    1
    12     7     9    1
    13     7    10    1
    14     8    12    1
    15     8    15    1
    16     9    11    1
    17     9    27    1
    18    10    14    1
    19    10    17    1
    20    10    19    1
    21    11    13    1
    22    11    28    1
    23    12    16    1
    24    12    29    1
    25    13    15    1
    26    13    18    1
    27    14    16    1
    28    14    20    1
    29    14    30    1
    30    16    31    1
    31    16    32    1
    32    17    21    1
    33    17    33    1
    34    17    34    1
    35    18    23    1
    36    18    24    1
    37    18    35    1
    38    19    36    1
    39    19    37    1
    40    19    38    1
    41    20    22    2
    42    20    25    1
    43    21    22    1
    44    21    39    1
    45    21    40    1
    46    22    26    1
    47    23    41    1
    48    23    42    1
    49    23    43    1
    50    24    44    1
    51    24    45    1
    52    24    46    1
    53    25    47    1
    54    25    48    1
