@<TRIPOS>MOLECULE
IMPHY008418
 30 30 0 0 0
SMALL
GASTEIGER

@<TRIPOS>ATOM
      1 O           5.9150   -0.2020    0.0000 O.3     1  UNL1       -0.3661
      2 O           2.4608    0.4368    0.0000 O.3     1  UNL1       -0.3947
      3 C           5.1060    0.3858    0.0000 C.3     1  UNL1        0.0645
      4 C           6.7240    0.3858    0.0000 C.3     1  UNL1        0.0850
      5 C           5.4150    1.3368    0.0000 C.3     1  UNL1       -0.0233
      6 C           6.4150    1.3368    0.0000 C.3     1  UNL1       -0.0180
      7 C           4.1550    0.0767    0.0000 C.3     1  UNL1        0.0057
      8 C           7.6751    0.6948    0.0000 C.3     1  UNL1       -0.0322
      9 C           3.4118    0.7459    0.0000 C.3     1  UNL1        0.0491
     10 C           7.3118   -0.4233    0.0000 C.2     1  UNL1       -0.0600
     11 C           3.9470   -0.9014    0.0000 C.3     1  UNL1       -0.0580
     12 C           6.9051   -1.3368    0.0000 C.2     1  UNL1       -0.1000
     13 H           4.9730   -0.4538    0.0000 H       1  UNL1        0.0600
     14 H           5.4798    1.9534    0.0000 H       1  UNL1        0.0291
     15 H           4.8086    1.4657    0.0000 H       1  UNL1        0.0291
     16 H           7.0215    1.4657    0.0000 H       1  UNL1        0.0297
     17 H           6.3502    1.9534    0.0000 H       1  UNL1        0.0297
     18 H           3.3466   -0.1859    0.0000 H       1  UNL1        0.0345
     19 H           7.8667    0.1051    0.0000 H       1  UNL1        0.0260
     20 H           8.2648    0.8864    0.0000 H       1  UNL1        0.0260
     21 H           7.4835    1.2844    0.0000 H       1  UNL1        0.0260
     22 H           3.9004    1.1276    0.0000 H       1  UNL1        0.0560
     23 H           3.1207    1.2933    0.0000 H       1  UNL1        0.0560
     24 H           7.9284   -0.3585    0.0000 H       1  UNL1        0.0594
     25 H           3.3406   -0.7725    0.0000 H       1  UNL1        0.0234
     26 H           3.8181   -1.5079    0.0000 H       1  UNL1        0.0234
     27 H           4.5535   -1.0303    0.0000 H       1  UNL1        0.0234
     28 H           6.2885   -1.4016    0.0000 H       1  UNL1        0.0533
     29 H           7.2695   -1.8384    0.0000 H       1  UNL1        0.0533
     30 H           2.0000    0.8517    0.0000 H       1  UNL1        0.2094
@<TRIPOS>BOND
     1     1     3    1
     2     1     4    1
     3     2     9    1
     4     2    30    1
     5     3     5    1
     6     3     7    1
     7     3    13    1
     8     4     6    1
     9     4     8    1
    10     4    10    1
    11     5     6    1
    12     5    14    1
    13     5    15    1
    14     6    16    1
    15     6    17    1
    16     7     9    1
    17     7    11    1
    18     7    18    1
    19     8    19    1
    20     8    20    1
    21     8    21    1
    22     9    22    1
    23     9    23    1
    24    10    12    2
    25    10    24    1
    26    11    25    1
    27    11    26    1
    28    11    27    1
    29    12    28    1
    30    12    29    1
