@<TRIPOS>MOLECULE
IMPHY013368
 87 92 0 0 0
SMALL
GASTEIGER

@<TRIPOS>ATOM
      1 O          11.1972    1.3204    0.0000 O.3     1  UNL1       -0.3301
      2 O          11.1972   -1.6796    0.0000 O.3     1  UNL1       -0.4527
      3 O          12.9292    1.3204    0.0000 O.3     1  UNL1       -0.4605
      4 O           9.4651   -0.6796    0.0000 O.3     1  UNL1       -0.3853
      5 O          12.9292   -0.6796    0.0000 O.3     1  UNL1       -0.3818
      6 O           8.5991    0.8204    0.0000 O.3     1  UNL1       -0.4589
      7 O          14.6852    4.3829    0.0000 O.3     1  UNL1       -0.4828
      8 O           9.4651   -1.6796    0.0000 O.2     1  UNL1       -0.2456
      9 O          11.1830    4.3996    0.0000 O.3     1  UNL1       -0.5058
     10 O          12.0929    5.8930    0.0000 O.2     1  UNL1       -0.2917
     11 O           7.7331    2.3204    0.0000 O.2     1  UNL1       -0.2456
     12 O          18.1608    7.3696    0.0000 O.3     1  UNL1       -0.5068
     13 O           9.4651   -7.6796    0.0000 O.3     1  UNL1       -0.5068
     14 O           2.5369   -0.6796    0.0000 O.3     1  UNL1       -0.5068
     15 C          11.1972   -0.6796    0.0000 C.3     1  UNL1        0.1631
     16 C          10.3312   -0.1796    0.0000 C.3     1  UNL1        0.1241
     17 C          12.0632   -0.1796    0.0000 C.3     1  UNL1        0.1564
     18 C          10.3312    0.8204    0.0000 C.3     1  UNL1        0.1260
     19 C          12.0632    0.8204    0.0000 C.3     1  UNL1        0.2319
     20 C           9.4651    1.3204    0.0000 C.3     1  UNL1        0.1215
     21 C          12.9292    2.3204    0.0000 C.ar    1  UNL1        0.1310
     22 C          10.3312   -2.1796    0.0000 C.2     1  UNL1        0.3324
     23 C          13.8293    2.8447    0.0000 C.ar    1  UNL1        0.0229
     24 C          13.8173    3.8863    0.0000 C.ar    1  UNL1        0.1389
     25 C          12.0292    2.8447    0.0000 C.ar    1  UNL1        0.0226
     26 C          12.9532    4.3896    0.0000 C.ar    1  UNL1        0.1007
     27 C          14.6891    5.3829    0.0000 C.3     1  UNL1        0.1322
     28 C          13.8250    5.8863    0.0000 C.3     1  UNL1        0.0520
     29 C          12.0412    3.8863    0.0000 C.ar    1  UNL1        0.1343
     30 C          12.9570    5.3896    0.0000 C.2     1  UNL1        0.1740
     31 C           7.7331    1.3204    0.0000 C.2     1  UNL1        0.3320
     32 C          10.3312   -3.1796    0.0000 C.2     1  UNL1        0.0231
     33 C          15.5570    5.8796    0.0000 C.ar    1  UNL1       -0.0067
     34 C           6.8671    0.8204    0.0000 C.2     1  UNL1        0.0231
     35 C          15.5609    6.8796    0.0000 C.ar    1  UNL1       -0.0516
     36 C          16.4211    5.3763    0.0000 C.ar    1  UNL1       -0.0516
     37 C           9.4651   -3.6796    0.0000 C.2     1  UNL1       -0.0478
     38 C          16.4288    7.3762    0.0000 C.ar    1  UNL1       -0.0198
     39 C          17.2890    5.8729    0.0000 C.ar    1  UNL1       -0.0198
     40 C           9.4651   -4.6796    0.0000 C.ar    1  UNL1       -0.0246
     41 C          17.2929    6.8729    0.0000 C.ar    1  UNL1        0.1169
     42 C           6.0010    1.3204    0.0000 C.2     1  UNL1       -0.0478
     43 C           5.1350    0.8204    0.0000 C.ar    1  UNL1       -0.0246
     44 C          10.3312   -5.1796    0.0000 C.ar    1  UNL1       -0.0511
     45 C           8.5991   -5.1796    0.0000 C.ar    1  UNL1       -0.0511
     46 C          10.3312   -6.1796    0.0000 C.ar    1  UNL1       -0.0196
     47 C           8.5991   -6.1796    0.0000 C.ar    1  UNL1       -0.0196
     48 C           5.1350   -0.1796    0.0000 C.ar    1  UNL1       -0.0511
     49 C           4.2690    1.3204    0.0000 C.ar    1  UNL1       -0.0511
     50 C           9.4651   -6.6796    0.0000 C.ar    1  UNL1        0.1169
     51 C           4.2690   -0.6796    0.0000 C.ar    1  UNL1       -0.0196
     52 C           3.4030    0.8204    0.0000 C.ar    1  UNL1       -0.0196
     53 C           3.4030   -0.1796    0.0000 C.ar    1  UNL1        0.1169
     54 H          10.6603   -0.9896    0.0000 H       1  UNL1        0.0790
     55 H           9.7942    0.1304    0.0000 H       1  UNL1        0.0658
     56 H          12.0632   -0.7996    0.0000 H       1  UNL1        0.0694
     57 H          10.3312    1.4404    0.0000 H       1  UNL1        0.0659
     58 H          12.0632    1.4404    0.0000 H       1  UNL1        0.1085
     59 H           9.8637    1.7954    0.0000 H       1  UNL1        0.0725
     60 H           9.0666    1.7954    0.0000 H       1  UNL1        0.0725
     61 H           8.9282   -0.3696    0.0000 H       1  UNL1        0.2101
     62 H          12.9292   -1.2996    0.0000 H       1  UNL1        0.2102
     63 H          14.3686    2.5389    0.0000 H       1  UNL1        0.0691
     64 H          11.4899    2.5389    0.0000 H       1  UNL1        0.0691
     65 H          15.2248    5.0709    0.0000 H       1  UNL1        0.0789
     66 H          14.2253    6.3597    0.0000 H       1  UNL1        0.0385
     67 H          13.4283    6.3628    0.0000 H       1  UNL1        0.0385
     68 H          10.8681   -3.4896    0.0000 H       1  UNL1        0.0689
     69 H          15.0251    7.1916    0.0000 H       1  UNL1        0.0623
     70 H          16.4187    4.7563    0.0000 H       1  UNL1        0.0623
     71 H           6.8671    0.2004    0.0000 H       1  UNL1        0.0689
     72 H           8.9282   -3.3696    0.0000 H       1  UNL1        0.0626
     73 H          10.6414    4.0979    0.0000 H       1  UNL1        0.2922
     74 H          16.4312    7.9962    0.0000 H       1  UNL1        0.0654
     75 H          17.8248    5.5608    0.0000 H       1  UNL1        0.0654
     76 H           6.0010    1.9404    0.0000 H       1  UNL1        0.0626
     77 H          10.8681   -4.8696    0.0000 H       1  UNL1        0.0625
     78 H           8.0622   -4.8696    0.0000 H       1  UNL1        0.0625
     79 H          18.1632    7.9896    0.0000 H       1  UNL1        0.2921
     80 H          10.8681   -6.4896    0.0000 H       1  UNL1        0.0654
     81 H           8.0622   -6.4896    0.0000 H       1  UNL1        0.0654
     82 H           5.6720   -0.4896    0.0000 H       1  UNL1        0.0625
     83 H           4.2690    1.9404    0.0000 H       1  UNL1        0.0625
     84 H           4.2690   -1.2996    0.0000 H       1  UNL1        0.0654
     85 H           2.8660    1.1304    0.0000 H       1  UNL1        0.0654
     86 H           8.9282   -7.9896    0.0000 H       1  UNL1        0.2921
     87 H           2.0000   -0.3696    0.0000 H       1  UNL1        0.2921
@<TRIPOS>BOND
     1     1    18    1
     2     1    19    1
     3    15     2    1
     4     2    22    1
     5    19     3    1
     6     3    21    1
     7    16     4    1
     8     4    61    1
     9     5    17    1
    10     5    62    1
    11     6    20    1
    12     6    31    1
    13     7    24    1
    14     7    27    1
    15     8    22    2
    16     9    29    1
    17     9    73    1
    18    10    30    2
    19    11    31    2
    20    12    41    1
    21    12    79    1
    22    13    50    1
    23    13    86    1
    24    14    53    1
    25    14    87    1
    26    15    16    1
    27    15    17    1
    28    15    54    1
    29    16    18    1
    30    16    55    1
    31    17    19    1
    32    17    56    1
    33    18    20    1
    34    18    57    1
    35    19    58    1
    36    20    59    1
    37    20    60    1
    38    21    23   ar
    39    21    25   ar
    40    22    32    1
    41    23    24   ar
    42    23    63    1
    43    24    26   ar
    44    25    29   ar
    45    25    64    1
    46    26    29   ar
    47    26    30    1
    48    27    28    1
    49    27    33    1
    50    27    65    1
    51    28    30    1
    52    28    66    1
    53    28    67    1
    54    31    34    1
    55    32    37    2
    56    32    68    1
    57    33    35   ar
    58    33    36   ar
    59    34    42    2
    60    34    71    1
    61    35    38   ar
    62    35    69    1
    63    36    39   ar
    64    36    70    1
    65    37    40    1
    66    37    72    1
    67    38    41   ar
    68    38    74    1
    69    39    41   ar
    70    39    75    1
    71    40    44   ar
    72    40    45   ar
    73    42    43    1
    74    42    76    1
    75    43    48   ar
    76    43    49   ar
    77    44    46   ar
    78    44    77    1
    79    45    47   ar
    80    45    78    1
    81    46    50   ar
    82    46    80    1
    83    47    50   ar
    84    47    81    1
    85    48    51   ar
    86    48    82    1
    87    49    52   ar
    88    49    83    1
    89    51    53   ar
    90    51    84    1
    91    52    53   ar
    92    52    85    1
