@<TRIPOS>MOLECULE
IMPHY006628
 62 63 0 0 0
SMALL
GASTEIGER

@<TRIPOS>ATOM
      1 CL          6.7734   -1.9983    0.0000 Cl      1  UNL1       -0.1223
      2 O           7.2204   -0.8911    0.0000 O.3     1  UNL1       -0.3825
      3 O           7.9939    0.5000    0.0000 O.3     1  UNL1       -0.4542
      4 O           3.7320   -0.0000    0.0000 O.2     1  UNL1       -0.4600
      5 O           4.5981   -1.5000    0.0000 O.3     1  UNL1       -0.4240
      6 O           3.7320    3.0000    0.0000 O.3     1  UNL1       -0.4599
      7 O           7.9939    2.2320    0.0000 O.2     1  UNL1       -0.2508
      8 O           2.8660   -1.5000    0.0000 O.2     1  UNL1       -0.2507
      9 O           4.5981    4.5000    0.0000 O.2     1  UNL1       -0.2512
     10 C           5.4641   -0.0000    0.0000 C.3     1  UNL1        0.0922
     11 C           6.4103   -0.3047    0.0000 C.3     1  UNL1        0.1332
     12 C           6.9939    0.5000    0.0000 C.3     1  UNL1        0.1522
     13 C           5.4641    1.0000    0.0000 C.2     1  UNL1       -0.0254
     14 C           4.5981   -0.5000    0.0000 C.3     1  UNL1        0.2548
     15 C           6.4103    1.3047    0.0000 C.2     1  UNL1       -0.0369
     16 C           6.1030   -1.2563    0.0000 C.3     1  UNL1        0.0560
     17 C           4.5981    1.5000    0.0000 C.2     1  UNL1        0.0277
     18 C           3.7320    1.0000    0.0000 C.2     1  UNL1        0.0956
     19 C           4.5981    2.5000    0.0000 C.3     1  UNL1        0.1206
     20 C           8.4939    1.3660    0.0000 C.2     1  UNL1        0.3080
     21 C           3.7320   -2.0000    0.0000 C.2     1  UNL1        0.3102
     22 C           9.4939    1.3660    0.0000 C.3     1  UNL1        0.0473
     23 C           3.7320   -3.0000    0.0000 C.3     1  UNL1        0.0474
     24 C           9.9939    2.2320    0.0000 C.3     1  UNL1       -0.0367
     25 C           2.8660   -3.5000    0.0000 C.3     1  UNL1       -0.0367
     26 C          10.9939    2.2320    0.0000 C.3     1  UNL1       -0.0622
     27 C           9.4939    3.0981    0.0000 C.3     1  UNL1       -0.0622
     28 C           3.7320    4.0000    0.0000 C.2     1  UNL1        0.3043
     29 C           2.8660   -4.5000    0.0000 C.3     1  UNL1       -0.0622
     30 C           2.0000   -3.0000    0.0000 C.3     1  UNL1       -0.0622
     31 C           2.8660    4.5000    0.0000 C.3     1  UNL1        0.0332
     32 H           5.5540   -0.8452    0.0000 H       1  UNL1        0.0452
     33 H           7.2756   -0.0523    0.0000 H       1  UNL1        0.0809
     34 H           5.1350   -0.8100    0.0000 H       1  UNL1        0.1213
     35 H           6.6029    1.8940    0.0000 H       1  UNL1        0.0612
     36 H           5.5550   -0.9662    0.0000 H       1  UNL1        0.0459
     37 H           5.7221   -1.7456    0.0000 H       1  UNL1        0.0459
     38 H           7.1566   -1.5078    0.0000 H       1  UNL1        0.2104
     39 H           3.1951    1.3100    0.0000 H       1  UNL1        0.1029
     40 H           5.2087    2.3923    0.0000 H       1  UNL1        0.0750
     41 H           4.8101    3.0826    0.0000 H       1  UNL1        0.0750
     42 H           9.3863    0.7554    0.0000 H       1  UNL1        0.0380
     43 H          10.0765    1.1540    0.0000 H       1  UNL1        0.0380
     44 H           3.9441   -3.5826    0.0000 H       1  UNL1        0.0380
     45 H           4.3426   -2.8923    0.0000 H       1  UNL1        0.0380
     46 H          10.3039    2.7690    0.0000 H       1  UNL1        0.0301
     47 H           2.8660   -2.8800    0.0000 H       1  UNL1        0.0301
     48 H          10.0309    3.4081    0.0000 H       1  UNL1        0.0232
     49 H           9.1839    3.6350    0.0000 H       1  UNL1        0.0232
     50 H           8.9570    2.7881    0.0000 H       1  UNL1        0.0232
     51 H          10.9939    1.6120    0.0000 H       1  UNL1        0.0232
     52 H          11.6139    2.2320    0.0000 H       1  UNL1        0.0232
     53 H          10.9939    2.8521    0.0000 H       1  UNL1        0.0232
     54 H           2.2460   -4.5000    0.0000 H       1  UNL1        0.0232
     55 H           2.8660   -5.1200    0.0000 H       1  UNL1        0.0232
     56 H           3.4860   -4.5000    0.0000 H       1  UNL1        0.0232
     57 H           2.3100   -2.4631    0.0000 H       1  UNL1        0.0232
     58 H           1.4631   -2.6900    0.0000 H       1  UNL1        0.0232
     59 H           1.6900   -3.5369    0.0000 H       1  UNL1        0.0232
     60 H           3.1760    5.0369    0.0000 H       1  UNL1        0.0342
     61 H           2.3291    4.8100    0.0000 H       1  UNL1        0.0342
     62 H           2.5560    3.9631    0.0000 H       1  UNL1        0.0342
@<TRIPOS>BOND
     1     1    16    1
     2    11     2    1
     3     2    38    1
     4    12     3    1
     5     3    20    1
     6     4    14    1
     7     4    18    1
     8    14     5    1
     9     5    21    1
    10     6    19    1
    11     6    28    1
    12     7    20    2
    13     8    21    2
    14     9    28    2
    15    10    11    1
    16    10    13    1
    17    10    14    1
    18    10    32    1
    19    11    12    1
    20    11    16    1
    21    12    15    1
    22    12    33    1
    23    13    15    2
    24    13    17    1
    25    14    34    1
    26    15    35    1
    27    16    36    1
    28    16    37    1
    29    17    18    2
    30    17    19    1
    31    18    39    1
    32    19    40    1
    33    19    41    1
    34    20    22    1
    35    21    23    1
    36    22    24    1
    37    22    42    1
    38    22    43    1
    39    23    25    1
    40    23    44    1
    41    23    45    1
    42    24    26    1
    43    24    27    1
    44    24    46    1
    45    25    29    1
    46    25    30    1
    47    25    47    1
    48    26    51    1
    49    26    52    1
    50    26    53    1
    51    27    48    1
    52    27    49    1
    53    27    50    1
    54    28    31    1
    55    29    54    1
    56    29    55    1
    57    29    56    1
    58    30    57    1
    59    30    58    1
    60    30    59    1
    61    31    60    1
    62    31    61    1
    63    31    62    1
