@<TRIPOS>MOLECULE
IMPHY017582
 24 23 0 0 0
SMALL
GASTEIGER

@<TRIPOS>ATOM
      1 O           8.0622   -0.2500    0.0000 O.3     1  UNL1       -0.4618
      2 O           3.7320    0.2500    0.0000 O.3     1  UNL1       -0.4618
      3 O           7.1962    1.2500    0.0000 O.2     1  UNL1       -0.2456
      4 O           4.5981   -1.2500    0.0000 O.2     1  UNL1       -0.2456
      5 C           8.9282    0.2500    0.0000 C.3     1  UNL1        0.0900
      6 C           2.8660   -0.2500    0.0000 C.3     1  UNL1        0.0900
      7 C           9.7942   -0.2500    0.0000 C.3     1  UNL1       -0.0306
      8 C           2.0000    0.2500    0.0000 C.3     1  UNL1       -0.0306
      9 C           6.3301   -0.2500    0.0000 C.2     1  UNL1        0.0292
     10 C           5.4641    0.2500    0.0000 C.2     1  UNL1        0.0292
     11 C           7.1962    0.2500    0.0000 C.2     1  UNL1        0.3321
     12 C           4.5981   -0.2500    0.0000 C.2     1  UNL1        0.3321
     13 H           9.3267    0.7249    0.0000 H       1  UNL1        0.0695
     14 H           8.5297    0.7249    0.0000 H       1  UNL1        0.0695
     15 H           2.4675   -0.7249    0.0000 H       1  UNL1        0.0695
     16 H           3.2646   -0.7249    0.0000 H       1  UNL1        0.0695
     17 H           9.4842   -0.7869    0.0000 H       1  UNL1        0.0262
     18 H          10.3312   -0.5600    0.0000 H       1  UNL1        0.0262
     19 H          10.1042    0.2869    0.0000 H       1  UNL1        0.0262
     20 H           2.3100    0.7869    0.0000 H       1  UNL1        0.0262
     21 H           1.4631    0.5600    0.0000 H       1  UNL1        0.0262
     22 H           1.6900   -0.2869    0.0000 H       1  UNL1        0.0262
     23 H           6.3301   -0.8700    0.0000 H       1  UNL1        0.0691
     24 H           5.4641    0.8700    0.0000 H       1  UNL1        0.0691
@<TRIPOS>BOND
     1     1     5    1
     2     1    11    1
     3     2     6    1
     4     2    12    1
     5     3    11    2
     6     4    12    2
     7     5     7    1
     8     5    13    1
     9     5    14    1
    10     6     8    1
    11     6    15    1
    12     6    16    1
    13     7    17    1
    14     7    18    1
    15     7    19    1
    16     8    20    1
    17     8    21    1
    18     8    22    1
    19     9    10    2
    20     9    11    1
    21     9    23    1
    22    10    12    1
    23    10    24    1
