@<TRIPOS>MOLECULE
IMPHY012453
 56 56 0 0 0
SMALL
GASTEIGER

@<TRIPOS>ATOM
      1 O           4.9641    1.3840    0.0000 O.3     1  UNL1       -0.3732
      2 O           3.7320    0.5179    0.0000 O.2     1  UNL1       -0.5073
      3 O           5.4641   -2.4820    0.0000 O.2     1  UNL1       -0.5056
      4 O           7.1962    0.5179    0.0000 O.2     1  UNL1       -0.2882
      5 O           8.0622   -0.9821    0.0000 O.2     1  UNL1       -0.2915
      6 C           5.4641    0.5179    0.0000 C.3     1  UNL1        0.1885
      7 C           4.5981    0.0179    0.0000 C.2     1  UNL1        0.1404
      8 C           6.3301    0.0179    0.0000 C.2     1  UNL1        0.2091
      9 C           5.9641    1.3840    0.0000 C.3     1  UNL1        0.0090
     10 C           6.3301   -0.9821    0.0000 C.2     1  UNL1        0.1051
     11 C           4.5981   -0.9821    0.0000 C.2     1  UNL1        0.0390
     12 C           7.1962   -2.4820    0.0000 C.3     1  UNL1        0.0193
     13 C           5.4641   -1.4820    0.0000 C.2     1  UNL1        0.1375
     14 C           7.1962   -1.4820    0.0000 C.2     1  UNL1        0.1729
     15 C           3.7320   -1.4820    0.0000 C.3     1  UNL1       -0.0025
     16 C           8.0622   -2.9820    0.0000 C.3     1  UNL1       -0.0463
     17 C           5.4641    2.2500    0.0000 C.2     1  UNL1       -0.0817
     18 C           6.3301   -2.9820    0.0000 C.3     1  UNL1       -0.0554
     19 C           3.7320   -2.4820    0.0000 C.2     1  UNL1       -0.0808
     20 C           5.9641    3.1160    0.0000 C.2     1  UNL1       -0.0795
     21 C           8.0622   -3.9820    0.0000 C.3     1  UNL1       -0.0646
     22 C           2.8660   -2.9820    0.0000 C.2     1  UNL1       -0.0793
     23 C           5.4641    3.9820    0.0000 C.3     1  UNL1       -0.0440
     24 C           6.9641    3.1160    0.0000 C.3     1  UNL1       -0.0440
     25 C           2.8660   -3.9820    0.0000 C.3     1  UNL1       -0.0440
     26 C           2.0000   -2.4820    0.0000 C.3     1  UNL1       -0.0440
     27 H           6.4390    0.9854    0.0000 H       1  UNL1        0.0344
     28 H           6.4390    1.7825    0.0000 H       1  UNL1        0.0344
     29 H           6.6592   -2.1720    0.0000 H       1  UNL1        0.0378
     30 H           3.5200   -0.8994    0.0000 H       1  UNL1        0.0358
     31 H           3.1215   -1.5897    0.0000 H       1  UNL1        0.0358
     32 H           8.6728   -3.0897    0.0000 H       1  UNL1        0.0269
     33 H           8.2742   -2.3994    0.0000 H       1  UNL1        0.0269
     34 H           4.8441    2.2500    0.0000 H       1  UNL1        0.0573
     35 H           4.3441    1.3840    0.0000 H       1  UNL1        0.2113
     36 H           6.0201   -2.4451    0.0000 H       1  UNL1        0.0237
     37 H           5.7932   -3.2920    0.0000 H       1  UNL1        0.0237
     38 H           6.6401   -3.5190    0.0000 H       1  UNL1        0.0237
     39 H           4.2690   -2.7920    0.0000 H       1  UNL1        0.0575
     40 H           3.1951    0.2079    0.0000 H       1  UNL1        0.2918
     41 H           7.4422   -3.9820    0.0000 H       1  UNL1        0.0230
     42 H           8.0622   -4.6020    0.0000 H       1  UNL1        0.0230
     43 H           8.6822   -3.9820    0.0000 H       1  UNL1        0.0230
     44 H           4.9272   -2.7920    0.0000 H       1  UNL1        0.2922
     45 H           6.0010    4.2920    0.0000 H       1  UNL1        0.0274
     46 H           5.1541    4.5190    0.0000 H       1  UNL1        0.0274
     47 H           4.9272    3.6720    0.0000 H       1  UNL1        0.0274
     48 H           6.9641    2.4960    0.0000 H       1  UNL1        0.0274
     49 H           7.5841    3.1160    0.0000 H       1  UNL1        0.0274
     50 H           6.9641    3.7360    0.0000 H       1  UNL1        0.0274
     51 H           2.2460   -3.9820    0.0000 H       1  UNL1        0.0274
     52 H           2.8660   -4.6020    0.0000 H       1  UNL1        0.0274
     53 H           3.4860   -3.9820    0.0000 H       1  UNL1        0.0274
     54 H           2.3100   -1.9451    0.0000 H       1  UNL1        0.0274
     55 H           1.4631   -2.1720    0.0000 H       1  UNL1        0.0274
     56 H           1.6900   -3.0190    0.0000 H       1  UNL1        0.0274
@<TRIPOS>BOND
     1     1     6    1
     2     1    35    1
     3     2     7    1
     4     2    40    1
     5     3    13    1
     6     3    44    1
     7     4     8    2
     8     5    14    2
     9     6     7    1
    10     6     8    1
    11     6     9    1
    12     7    11    2
    13     8    10    1
    14     9    17    1
    15     9    27    1
    16     9    28    1
    17    10    13    2
    18    10    14    1
    19    11    13    1
    20    11    15    1
    21    12    14    1
    22    12    16    1
    23    12    18    1
    24    12    29    1
    25    15    19    1
    26    15    30    1
    27    15    31    1
    28    16    21    1
    29    16    32    1
    30    16    33    1
    31    17    20    2
    32    17    34    1
    33    18    36    1
    34    18    37    1
    35    18    38    1
    36    19    22    2
    37    19    39    1
    38    20    23    1
    39    20    24    1
    40    21    41    1
    41    21    42    1
    42    21    43    1
    43    22    25    1
    44    22    26    1
    45    23    45    1
    46    23    46    1
    47    23    47    1
    48    24    48    1
    49    24    49    1
    50    24    50    1
    51    25    51    1
    52    25    52    1
    53    25    53    1
    54    26    54    1
    55    26    55    1
    56    26    56    1
