@<TRIPOS>MOLECULE
IMPHY014133
 84 87 0 0 0
SMALL
GASTEIGER

@<TRIPOS>ATOM
      1 O           7.6967    0.9325    0.0000 O.3     1  UNL1       -0.3803
      2 O           5.0109   -0.2892    0.0000 O.2     1  UNL1       -0.2957
      3 O           8.5462   -0.0284    0.0000 O.3     1  UNL1       -0.4508
      4 O           7.6967    1.9324    0.0000 O.3     1  UNL1       -0.3844
      5 O           5.0986    3.4324    0.0000 O.3     1  UNL1       -0.3906
      6 O           8.9033   -1.7232    0.0000 O.2     1  UNL1       -0.2456
      7 C           3.3665    1.4324    0.0000 C.3     1  UNL1       -0.0193
      8 C           3.3665    0.4325    0.0000 C.3     1  UNL1       -0.0311
      9 C           2.5000    0.9325    0.0000 C.3     1  UNL1       -0.0277
     10 C           4.2326    1.9324    0.0000 C.3     1  UNL1        0.0405
     11 C           4.2326   -0.0675    0.0000 C.3     1  UNL1       -0.0455
     12 C           5.9646   -0.0675    0.0000 C.3     1  UNL1        0.0856
     13 C           5.0986    0.4325    0.0000 C.3     1  UNL1       -0.0248
     14 C           6.8306    0.4325    0.0000 C.3     1  UNL1        0.1519
     15 C           4.8219    0.6928    0.0000 C.2     1  UNL1        0.1534
     16 C           2.0000    1.7985    0.0000 C.3     1  UNL1       -0.0593
     17 C           2.0000    0.0664    0.0000 C.3     1  UNL1       -0.0593
     18 C           5.0986    1.4324    0.0000 C.2     1  UNL1       -0.0696
     19 C           6.1738   -1.0394    0.0000 C.2     1  UNL1       -0.0651
     20 C           6.8306    1.4324    0.0000 C.3     1  UNL1        0.1120
     21 C           7.5676   -0.2346    0.0000 C.3     1  UNL1        0.1567
     22 C           5.9646    0.9325    0.0000 C.3     1  UNL1       -0.0611
     23 C           5.9646    1.9324    0.0000 C.2     1  UNL1       -0.0167
     24 C           7.1625   -1.1424    0.0000 C.2     1  UNL1       -0.0326
     25 C           5.9646    2.9324    0.0000 C.3     1  UNL1        0.0678
     26 C           7.6625   -2.0084    0.0000 C.3     1  UNL1       -0.0402
     27 C           9.2140   -0.7727    0.0000 C.2     1  UNL1        0.3326
     28 C          10.1925   -0.5665    0.0000 C.2     1  UNL1        0.0225
     29 C          10.8604   -1.3108    0.0000 C.2     1  UNL1       -0.0550
     30 C          11.8389   -1.1046    0.0000 C.2     1  UNL1       -0.0615
     31 C          12.5067   -1.8489    0.0000 C.2     1  UNL1       -0.0618
     32 C          13.4852   -1.6427    0.0000 C.2     1  UNL1       -0.0618
     33 C          14.1531   -2.3870    0.0000 C.2     1  UNL1       -0.0618
     34 C          15.1316   -2.1807    0.0000 C.2     1  UNL1       -0.0618
     35 C          15.7994   -2.9250    0.0000 C.2     1  UNL1       -0.0621
     36 C          16.7779   -2.7188    0.0000 C.2     1  UNL1       -0.0657
     37 C          17.4458   -3.4631    0.0000 C.2     1  UNL1       -0.0840
     38 C          18.4243   -3.2569    0.0000 C.3     1  UNL1       -0.0347
     39 C          19.0921   -4.0012    0.0000 C.3     1  UNL1       -0.0525
     40 C          20.0706   -3.7950    0.0000 C.3     1  UNL1       -0.0650
     41 H           3.0566    1.9694    0.0000 H       1  UNL1        0.0319
     42 H           3.0566   -0.1045    0.0000 H       1  UNL1        0.0309
     43 H           4.2326    2.5524    0.0000 H       1  UNL1        0.0423
     44 H           3.8340   -0.5425    0.0000 H       1  UNL1        0.0271
     45 H           4.6311   -0.5425    0.0000 H       1  UNL1        0.0271
     46 H           4.7886    0.9694    0.0000 H       1  UNL1        0.0312
     47 H           2.5369    2.1085    0.0000 H       1  UNL1        0.0235
     48 H           1.6900    2.3354    0.0000 H       1  UNL1        0.0235
     49 H           1.4631    1.4885    0.0000 H       1  UNL1        0.0235
     50 H           1.4631    0.3764    0.0000 H       1  UNL1        0.0235
     51 H           1.6900   -0.4705    0.0000 H       1  UNL1        0.0235
     52 H           2.5369   -0.2436    0.0000 H       1  UNL1        0.0235
     53 H           5.0986    0.8125    0.0000 H       1  UNL1        0.0580
     54 H           5.7598   -1.5008    0.0000 H       1  UNL1        0.0583
     55 H           6.8306    2.0524    0.0000 H       1  UNL1        0.0672
     56 H           7.9572   -0.7170    0.0000 H       1  UNL1        0.0813
     57 H           6.2746    0.3955    0.0000 H       1  UNL1        0.0233
     58 H           6.5016    1.2424    0.0000 H       1  UNL1        0.0233
     59 H           5.6546    1.4694    0.0000 H       1  UNL1        0.0233
     60 H           8.2336    0.6225    0.0000 H       1  UNL1        0.2105
     61 H           6.5752    2.8248    0.0000 H       1  UNL1        0.0605
     62 H           6.1767    3.5151    0.0000 H       1  UNL1        0.0605
     63 H           7.1256   -2.3184    0.0000 H       1  UNL1        0.0276
     64 H           7.9725   -2.5454    0.0000 H       1  UNL1        0.0276
     65 H           8.1995   -1.6984    0.0000 H       1  UNL1        0.0276
     66 H           7.6967    2.5524    0.0000 H       1  UNL1        0.2103
     67 H           5.0986    4.0524    0.0000 H       1  UNL1        0.2098
     68 H          10.3851    0.0228    0.0000 H       1  UNL1        0.0689
     69 H          10.6677   -1.9001    0.0000 H       1  UNL1        0.0620
     70 H          12.0315   -0.5153    0.0000 H       1  UNL1        0.0618
     71 H          12.3141   -2.4382    0.0000 H       1  UNL1        0.0618
     72 H          13.6778   -1.0533    0.0000 H       1  UNL1        0.0618
     73 H          13.9604   -2.9763    0.0000 H       1  UNL1        0.0618
     74 H          15.3242   -1.5914    0.0000 H       1  UNL1        0.0618
     75 H          15.6068   -3.5144    0.0000 H       1  UNL1        0.0617
     76 H          16.9705   -2.1295    0.0000 H       1  UNL1        0.0614
     77 H          17.2531   -4.0524    0.0000 H       1  UNL1        0.0572
     78 H          18.9506   -2.9293    0.0000 H       1  UNL1        0.0307
     79 H          18.1930   -2.6817    0.0000 H       1  UNL1        0.0307
     80 H          18.5657   -4.3288    0.0000 H       1  UNL1        0.0266
     81 H          19.3234   -4.5765    0.0000 H       1  UNL1        0.0266
     82 H          20.1985   -4.4017    0.0000 H       1  UNL1        0.0230
     83 H          20.6773   -3.6671    0.0000 H       1  UNL1        0.0230
     84 H          19.9428   -3.1883    0.0000 H       1  UNL1        0.0230
@<TRIPOS>BOND
     1     1    14    1
     2     1    60    1
     3     2    15    2
     4     3    21    1
     5     3    27    1
     6     4    20    1
     7     4    66    1
     8     5    25    1
     9     5    67    1
    10     6    27    2
    11     7     8    1
    12     7     9    1
    13     7    10    1
    14     7    41    1
    15     8     9    1
    16     8    11    1
    17     8    42    1
    18     9    16    1
    19     9    17    1
    20    10    15    1
    21    10    18    1
    22    10    43    1
    23    11    13    1
    24    11    44    1
    25    11    45    1
    26    12    13    1
    27    12    14    1
    28    12    15    1
    29    12    19    1
    30    13    22    1
    31    13    46    1
    32    14    20    1
    33    14    21    1
    34    16    47    1
    35    16    48    1
    36    16    49    1
    37    17    50    1
    38    17    51    1
    39    17    52    1
    40    18    23    2
    41    18    53    1
    42    19    24    2
    43    19    54    1
    44    20    23    1
    45    20    55    1
    46    21    24    1
    47    21    56    1
    48    22    57    1
    49    22    58    1
    50    22    59    1
    51    23    25    1
    52    24    26    1
    53    25    61    1
    54    25    62    1
    55    26    63    1
    56    26    64    1
    57    26    65    1
    58    27    28    1
    59    28    29    2
    60    28    68    1
    61    29    30    1
    62    29    69    1
    63    30    31    2
    64    30    70    1
    65    31    32    1
    66    31    71    1
    67    32    33    2
    68    32    72    1
    69    33    34    1
    70    33    73    1
    71    34    35    2
    72    34    74    1
    73    35    36    1
    74    35    75    1
    75    36    37    2
    76    36    76    1
    77    37    38    1
    78    37    77    1
    79    38    39    1
    80    38    78    1
    81    38    79    1
    82    39    40    1
    83    39    80    1
    84    39    81    1
    85    40    82    1
    86    40    83    1
    87    40    84    1
