@<TRIPOS>MOLECULE
IMPHY001742
 32 31 0 0 0
SMALL
GASTEIGER

@<TRIPOS>ATOM
      1 O           6.0010   -0.5000    0.0000 O.2     1  UNL1       -0.2758
      2 O           2.5369    0.5000    0.0000 O.3     1  UNL1       -0.4793
      3 O          10.3312    1.0000    0.0000 O.3     1  UNL1       -0.4795
      4 OXT         3.4030    2.0000    0.0000 O.2     1  UNL1       -0.2489
      5 OXT         9.4651   -0.5000    0.0000 O.2     1  UNL1       -0.2493
      6 OD1         3.4030   -2.0000    0.0000 O.3     1  UNL1       -0.4806
      7 OD2         2.5369   -0.5000    0.0000 O.2     1  UNL1       -0.2509
      8 N           5.1350    1.0000    0.0000 N.am    1  UNL1       -0.3019
      9 N           8.5991    2.0000    0.0000 N.3     1  UNL1       -0.3184
     10 C           7.7331    0.5000    0.0000 C.3     1  UNL1       -0.0191
     11 C           6.8671    1.0000    0.0000 C.3     1  UNL1        0.0259
     12 CA          4.2690    0.5000    0.0000 C.3     1  UNL1        0.1303
     13 CA          8.5991    1.0000    0.0000 C.3     1  UNL1        0.1037
     14 C           6.0010    0.5000    0.0000 C.2     1  UNL1        0.2137
     15 CB          4.2690   -0.5000    0.0000 C.3     1  UNL1        0.0735
     16 C           3.4030    1.0000    0.0000 C.2     1  UNL1        0.3258
     17 C           9.4651    0.5000    0.0000 C.2     1  UNL1        0.3217
     18 CG          3.4030   -1.0000    0.0000 C.2     1  UNL1        0.3070
     19 H           7.3346    0.0251    0.0000 H       1  UNL1        0.0290
     20 H           8.1316    0.0251    0.0000 H       1  UNL1        0.0290
     21 H           7.2656    1.4750    0.0000 H       1  UNL1        0.0359
     22 H           6.4685    1.4750    0.0000 H       1  UNL1        0.0359
     23 HA          4.2690    1.1200    0.0000 H       1  UNL1        0.0620
     24 HA          8.0622    1.3100    0.0000 H       1  UNL1        0.0574
     25 H           5.1350    1.6200    0.0000 H       1  UNL1        0.1495
     26 HB1         4.4810   -1.0826    0.0000 H       1  UNL1        0.0401
     27 HB2         4.8796   -0.3923    0.0000 H       1  UNL1        0.0401
     28 H1          9.1360    2.3100    0.0000 H       1  UNL1        0.1190
     29 H2          8.0622    2.3100    0.0000 H       1  UNL1        0.1190
     30 H           2.0000    0.8100    0.0000 H       1  UNL1        0.2951
     31 H          10.8681    0.6900    0.0000 H       1  UNL1        0.2951
     32 HD1         2.8660   -2.3100    0.0000 H       1  UNL1        0.2951
@<TRIPOS>BOND
     1     1    14    2
     2     2    16    1
     3     2    30    1
     4     3    17    1
     5     3    31    1
     6     4    16    2
     7     5    17    2
     8     6    18    1
     9     6    32    1
    10     7    18    2
    11    12     8    1
    12     8    14   am
    13     8    25    1
    14    13     9    1
    15     9    28    1
    16     9    29    1
    17    10    11    1
    18    10    13    1
    19    10    19    1
    20    10    20    1
    21    11    14    1
    22    11    21    1
    23    11    22    1
    24    12    15    1
    25    12    16    1
    26    12    23    1
    27    13    17    1
    28    13    24    1
    29    15    18    1
    30    15    26    1
    31    15    27    1
