@<TRIPOS>MOLECULE
IMPHY014185
 46 49 0 0 0
SMALL
GASTEIGER

@<TRIPOS>ATOM
      1 O           3.1185   -0.5332    0.0000 O.3     1  UNL1       -0.3840
      2 O           5.7035    0.6390    0.0000 O.3     1  UNL1       -0.4560
      3 O           2.0588   -0.2849    0.0000 O.3     1  UNL1       -0.4627
      4 O           2.9494    1.0616    0.0000 O.3     1  UNL1       -0.3737
      5 O           2.5124   -2.6808    0.0000 O.3     1  UNL1       -0.3889
      6 O           6.4106   -1.9159    0.0000 O.3     1  UNL1       -0.3799
      7 O           2.0000   -1.6349    0.0000 O.2     1  UNL1       -0.2499
      8 O           4.3040    2.3120    0.0000 O.3     1  UNL1       -0.4658
      9 O           7.0862   -0.2849    0.0000 O.2     1  UNL1       -0.2479
     10 O           2.8898    2.3120    0.0000 O.2     1  UNL1       -0.2474
     11 C           4.7796   -1.5914    0.0000 C.3     1  UNL1        0.0456
     12 C           3.8558   -1.2088    0.0000 C.3     1  UNL1        0.1228
     13 C           3.4731   -0.2849    0.0000 C.3     1  UNL1        0.1752
     14 C           4.6991   -2.5823    0.0000 C.3     1  UNL1       -0.0300
     15 C           4.4136   -0.2849    0.0000 C.3     1  UNL1       -0.0008
     16 C           3.8558    0.6390    0.0000 C.3     1  UNL1        0.2211
     17 C           3.2121   -1.9664    0.0000 C.3     1  UNL1        0.0860
     18 C           4.7796    1.0217    0.0000 C.3     1  UNL1        0.1441
     19 C           3.7322   -2.8135    0.0000 C.3     1  UNL1       -0.0208
     20 C           5.7035   -1.2088    0.0000 C.3     1  UNL1        0.1602
     21 C           2.7660    0.4222    0.0000 C.3     1  UNL1        0.1144
     22 C           2.7660   -0.9920    0.0000 C.2     1  UNL1        0.3231
     23 C           5.4583   -3.2330    0.0000 C.3     1  UNL1       -0.0616
     24 C           6.0862   -0.2849    0.0000 C.2     1  UNL1        0.3370
     25 C           3.5969    1.6049    0.0000 C.2     1  UNL1        0.3440
     26 C           4.0452    3.2780    0.0000 C.3     1  UNL1        0.0818
     27 H           4.5535   -3.1849    0.0000 H       1  UNL1        0.0306
     28 H           3.9071    0.0726    0.0000 H       1  UNL1        0.0309
     29 H           5.0336   -0.2849    0.0000 H       1  UNL1        0.0309
     30 H           2.7541   -1.5485    0.0000 H       1  UNL1        0.0622
     31 H           4.7796    1.8717    0.0000 H       1  UNL1        0.0769
     32 H           3.1727   -3.0806    0.0000 H       1  UNL1        0.0294
     33 H           3.9390   -3.3980    0.0000 H       1  UNL1        0.0294
     34 H           6.3116   -1.0878    0.0000 H       1  UNL1        0.0717
     35 H           3.2044    0.8606    0.0000 H       1  UNL1        0.0711
     36 H           2.3276    0.8606    0.0000 H       1  UNL1        0.0711
     37 H           5.0549   -3.7038    0.0000 H       1  UNL1        0.0233
     38 H           5.9291   -3.6365    0.0000 H       1  UNL1        0.0233
     39 H           5.8618   -2.7623    0.0000 H       1  UNL1        0.0233
     40 H           2.5956   -0.2000    0.0000 H       1  UNL1        0.2103
     41 H           2.5938    1.5695    0.0000 H       1  UNL1        0.2111
     42 H           2.6791   -3.2780    0.0000 H       1  UNL1        0.2099
     43 H           7.0095   -1.7554    0.0000 H       1  UNL1        0.2105
     44 H           4.6441    3.4384    0.0000 H       1  UNL1        0.0661
     45 H           3.8848    3.8768    0.0000 H       1  UNL1        0.0661
     46 H           3.4463    3.1175    0.0000 H       1  UNL1        0.0661
@<TRIPOS>BOND
     1    12     1    1
     2     1    40    1
     3     2    18    1
     4     2    24    1
     5     3    21    1
     6     3    22    1
     7    16     4    1
     8     4    41    1
     9    17     5    1
    10     5    42    1
    11    20     6    1
    12     6    43    1
    13     7    22    2
    14     8    25    1
    15     8    26    1
    16     9    24    2
    17    10    25    2
    18    11    12    1
    19    11    14    1
    20    11    15    1
    21    11    20    1
    22    12    13    1
    23    12    17    1
    24    13    16    1
    25    13    21    1
    26    13    22    1
    27    14    19    1
    28    14    23    1
    29    14    27    1
    30    15    18    1
    31    15    28    1
    32    15    29    1
    33    16    18    1
    34    16    25    1
    35    17    19    1
    36    17    30    1
    37    18    31    1
    38    19    32    1
    39    19    33    1
    40    20    24    1
    41    20    34    1
    42    21    35    1
    43    21    36    1
    44    23    37    1
    45    23    38    1
    46    23    39    1
    47    26    44    1
    48    26    45    1
    49    26    46    1
