@<TRIPOS>MOLECULE
IMPHY008671
 39 42 0 0 0
SMALL
GASTEIGER

@<TRIPOS>ATOM
      1 O           2.5836    0.1980    0.0000 O.3     1  UNL1       -0.4520
      2 O           2.5836    1.8074    0.0000 O.3     1  UNL1       -0.4526
      3 O           6.1541   -3.1482    0.0000 O.3     1  UNL1       -0.4945
      4 O           4.9611    3.2085    0.0000 O.3     1  UNL1       -0.4644
      5 O           6.5887    2.6161    0.0000 O.2     1  UNL1       -0.2449
      6 O           7.9038    0.0159    0.0000 O.co2   1  UNL1       -0.5760
      7 O           7.6660    1.2793    0.0000 O.2     1  UNL1        0.0415
      8 N           7.0321    0.5059    0.0000 N.pl3   1  UNL1        0.0803
      9 C           4.3958    0.0027    0.0000 C.ar    1  UNL1        0.0427
     10 C           5.2619    0.5027    0.0000 C.ar    1  UNL1        0.0775
     11 C           4.3798   -1.0388    0.0000 C.ar    1  UNL1       -0.0026
     12 C           3.5298    0.5027    0.0000 C.ar    1  UNL1        0.1747
     13 C           5.2778   -1.5665    0.0000 C.ar    1  UNL1        0.0309
     14 C           6.1719   -0.0041    0.0000 C.ar    1  UNL1        0.2824
     15 C           5.2619    1.5027    0.0000 C.ar    1  UNL1        0.0768
     16 C           3.5298    1.5027    0.0000 C.ar    1  UNL1        0.1677
     17 C           6.1799   -1.0457    0.0000 C.ar    1  UNL1        0.0275
     18 C           4.3958    2.0027    0.0000 C.ar    1  UNL1       -0.0013
     19 C           3.4279   -1.5594    0.0000 C.ar    1  UNL1       -0.0531
     20 C           5.2862   -2.6515    0.0000 C.ar    1  UNL1        0.1280
     21 C           2.0000    1.0027    0.0000 C.3     1  UNL1        0.2333
     22 C           3.4111   -2.6443    0.0000 C.ar    1  UNL1       -0.0577
     23 C           4.3466   -3.1940    0.0000 C.ar    1  UNL1       -0.0193
     24 C           5.6039    2.4424    0.0000 C.2     1  UNL1        0.3399
     25 C           6.1580   -4.1482    0.0000 C.3     1  UNL1        0.0788
     26 C           5.3031    4.1482    0.0000 C.3     1  UNL1        0.0820
     27 H           6.7180   -1.3536    0.0000 H       1  UNL1        0.0693
     28 H           4.3958    2.6227    0.0000 H       1  UNL1        0.0664
     29 H           2.8970   -1.2391    0.0000 H       1  UNL1        0.0624
     30 H           1.5391    1.4175    0.0000 H       1  UNL1        0.1166
     31 H           1.5391    0.5880    0.0000 H       1  UNL1        0.1166
     32 H           2.8707   -2.9480    0.0000 H       1  UNL1        0.0619
     33 H           4.3442   -3.8140    0.0000 H       1  UNL1        0.0654
     34 H           5.5380   -4.1505    0.0000 H       1  UNL1        0.0660
     35 H           6.1604   -4.7682    0.0000 H       1  UNL1        0.0660
     36 H           6.7780   -4.1458    0.0000 H       1  UNL1        0.0660
     37 H           5.8857    3.9361    0.0000 H       1  UNL1        0.0661
     38 H           5.5152    4.7308    0.0000 H       1  UNL1        0.0661
     39 H           4.7205    4.3602    0.0000 H       1  UNL1        0.0661
@<TRIPOS>UNITY_ATOM_ATTR
6 1
charge -1
8 1
charge 1
@<TRIPOS>BOND
     1     1    12    1
     2     1    21    1
     3     2    16    1
     4     2    21    1
     5     3    20    1
     6     3    25    1
     7     4    24    1
     8     4    26    1
     9     5    24    2
    10     6     8    1
    11     7     8    2
    12     8    14    1
    13     9    10   ar
    14     9    11   ar
    15     9    12   ar
    16    10    14   ar
    17    10    15   ar
    18    11    13   ar
    19    11    19   ar
    20    12    16   ar
    21    13    17   ar
    22    13    20   ar
    23    14    17   ar
    24    15    18   ar
    25    15    24    1
    26    16    18   ar
    27    17    27    1
    28    18    28    1
    29    19    22   ar
    30    19    29    1
    31    20    23   ar
    32    21    30    1
    33    21    31    1
    34    22    23   ar
    35    22    32    1
    36    23    33    1
    37    25    34    1
    38    25    35    1
    39    25    36    1
    40    26    37    1
    41    26    38    1
    42    26    39    1
