@<TRIPOS>MOLECULE
IMPHY008080
 52 55 0 0 0
SMALL
GASTEIGER

@<TRIPOS>ATOM
      1 O           6.0049    3.5692    0.0000 O.3     1  UNL1       -0.3843
      2 O           6.8283   -0.9947    0.0000 O.3     1  UNL1       -0.4804
      3 O           2.0000    0.4674    0.0000 O.2     1  UNL1       -0.3004
      4 O           5.6292   -2.2445    0.0000 O.2     1  UNL1       -0.2507
      5 O           2.7461   -3.1320    0.0000 O.3     1  UNL1       -0.4802
      6 O           4.4778   -3.1623    0.0000 O.2     1  UNL1       -0.2504
      7 C           5.2824    0.4036    0.0000 C.3     1  UNL1       -0.0057
      8 C           4.3814    0.8375    0.0000 C.3     1  UNL1       -0.0217
      9 C           3.6963    0.1172    0.0000 C.3     1  UNL1        0.0339
     10 C           4.1681   -0.7578    0.0000 C.3     1  UNL1        0.0002
     11 C           5.1464   -0.5811    0.0000 C.3     1  UNL1        0.0672
     12 C           5.1755    1.5804    0.0000 C.3     1  UNL1       -0.0131
     13 C           5.7824    2.5942    0.0000 C.3     1  UNL1        0.0874
     14 C           6.1833    0.8375    0.0000 C.3     1  UNL1       -0.0225
     15 C           4.1589    1.8124    0.0000 C.3     1  UNL1       -0.0459
     16 C           3.6382   -1.6474    0.0000 C.3     1  UNL1        0.0693
     17 C           2.6618    0.1632    0.0000 C.3     1  UNL1       -0.0403
     18 C           4.7824    2.5942    0.0000 C.3     1  UNL1       -0.0198
     19 C           6.4058    1.8124    0.0000 C.2     1  UNL1       -0.0449
     20 C           2.6030   -1.6253    0.0000 C.3     1  UNL1       -0.0372
     21 C           2.1115   -0.7139    0.0000 C.3     1  UNL1       -0.0512
     22 C           2.9492    0.7820    0.0000 C.2     1  UNL1        0.1270
     23 C           5.8680   -1.2734    0.0000 C.2     1  UNL1        0.3087
     24 C           4.4953   -2.1625    0.0000 C.3     1  UNL1       -0.0491
     25 C           3.6207   -2.6472    0.0000 C.2     1  UNL1        0.3110
     26 C           7.3808    2.0349    0.0000 C.2     1  UNL1       -0.0967
     27 H           3.6156    1.2063    0.0000 H       1  UNL1        0.0316
     28 H           4.6523   -1.4564    0.0000 H       1  UNL1        0.0329
     29 H           4.9673   -1.1747    0.0000 H       1  UNL1        0.0422
     30 H           4.7677    2.0474    0.0000 H       1  UNL1        0.0302
     31 H           4.6055    1.3365    0.0000 H       1  UNL1        0.0302
     32 H           6.3213    0.2330    0.0000 H       1  UNL1        0.0316
     33 H           6.8033    0.8375    0.0000 H       1  UNL1        0.0316
     34 H           3.7723    2.2971    0.0000 H       1  UNL1        0.0269
     35 H           3.6003    1.5434    0.0000 H       1  UNL1        0.0269
     36 H           2.7950    0.7688    0.0000 H       1  UNL1        0.0275
     37 H           2.0880    0.3980    0.0000 H       1  UNL1        0.0275
     38 H           4.9203    3.1987    0.0000 H       1  UNL1        0.0296
     39 H           4.2238    2.8632    0.0000 H       1  UNL1        0.0296
     40 H           2.0149   -1.8218    0.0000 H       1  UNL1        0.0276
     41 H           2.6960   -2.2383    0.0000 H       1  UNL1        0.0276
     42 H           1.6504   -0.2994    0.0000 H       1  UNL1        0.0266
     43 H           1.6242   -1.0972    0.0000 H       1  UNL1        0.0266
     44 H           3.0746    1.3892    0.0000 H       1  UNL1        0.1032
     45 H           4.1760   -2.6939    0.0000 H       1  UNL1        0.0240
     46 H           5.0268   -2.4818    0.0000 H       1  UNL1        0.0240
     47 H           4.8147   -1.6310    0.0000 H       1  UNL1        0.0240
     48 H           6.5973    3.7519    0.0000 H       1  UNL1        0.2106
     49 H           7.8025    1.5804    0.0000 H       1  UNL1        0.0535
     50 H           7.5635    2.6274    0.0000 H       1  UNL1        0.0535
     51 H           7.2757   -1.4239    0.0000 H       1  UNL1        0.2951
     52 H           2.7352   -3.7519    0.0000 H       1  UNL1        0.2951
@<TRIPOS>BOND
     1    13     1    1
     2     1    48    1
     3     2    23    1
     4     2    51    1
     5     3    22    2
     6     4    23    2
     7     5    25    1
     8     5    52    1
     9     6    25    2
    10     7     8    1
    11     7    11    1
    12     7    12    1
    13     7    14    1
    14     8     9    1
    15     8    15    1
    16     8    27    1
    17     9    10    1
    18     9    17    1
    19     9    22    1
    20    10    11    1
    21    10    16    1
    22    10    28    1
    23    11    23    1
    24    11    29    1
    25    12    13    1
    26    12    30    1
    27    12    31    1
    28    13    18    1
    29    13    19    1
    30    14    19    1
    31    14    32    1
    32    14    33    1
    33    15    18    1
    34    15    34    1
    35    15    35    1
    36    16    20    1
    37    16    24    1
    38    16    25    1
    39    17    21    1
    40    17    36    1
    41    17    37    1
    42    18    38    1
    43    18    39    1
    44    19    26    2
    45    20    21    1
    46    20    40    1
    47    20    41    1
    48    21    42    1
    49    21    43    1
    50    22    44    1
    51    24    45    1
    52    24    46    1
    53    24    47    1
    54    26    49    1
    55    26    50    1
