@<TRIPOS>MOLECULE
IMPHY002163
 93 99 0 0 0
SMALL
GASTEIGER

@<TRIPOS>ATOM
      1 O           3.4080    0.2093    0.0000 O.3     1  UNL1       -0.3815
      2 O           2.9668    1.0474    0.0000 O.3     1  UNL1       -0.3851
      3 O           4.4843   -0.1215    0.0000 O.3     1  UNL1       -0.3765
      4 O           6.3070    3.6404    0.0000 O.3     1  UNL1       -0.3791
      5 O           2.5901    3.2145    0.0000 O.3     1  UNL1       -0.3790
      6 O           2.1893    4.0983    0.0000 O.3     1  UNL1       -0.3793
      7 O           7.1730   -0.5948    0.0000 O.3     1  UNL1       -0.4605
      8 O           6.3070   -2.0948    0.0000 O.2     1  UNL1       -0.2449
      9 O           8.0390   -5.0948    0.0000 O.2     1  UNL1       -0.2758
     10 N           7.5023    1.8113    0.0000 N.3     1  UNL1       -0.2955
     11 N           7.1730   -3.5948    0.0000 N.am    1  UNL1       -0.2850
     12 C           5.5556    2.2066    0.0000 C.3     1  UNL1        0.0245
     13 C           5.5556    1.3390    0.0000 C.3     1  UNL1        0.0078
     14 C           6.5576    2.1005    0.0000 C.3     1  UNL1        0.0529
     15 C           4.8773    2.7475    0.0000 C.3     1  UNL1       -0.0228
     16 C           4.0315    0.9911    0.0000 C.3     1  UNL1        0.1371
     17 C           4.0315    2.5544    0.0000 C.3     1  UNL1        0.0209
     18 C           3.6551    1.7728    0.0000 C.3     1  UNL1        0.1063
     19 C           4.8773    0.7981    0.0000 C.3     1  UNL1        0.0953
     20 C           6.3070    0.9052    0.0000 C.3     1  UNL1        0.0236
     21 C           6.3070    2.6404    0.0000 C.3     1  UNL1        0.0661
     22 C           4.9551    3.6116    0.0000 C.3     1  UNL1       -0.0416
     23 C           4.1573    3.9526    0.0000 C.3     1  UNL1        0.0123
     24 C           3.5865    3.2992    0.0000 C.3     1  UNL1        0.0693
     25 C           3.0102    2.0427    0.0000 C.3     1  UNL1        0.0059
     26 C           7.5023    1.0594    0.0000 C.3     1  UNL1        0.0084
     27 C           7.0583    1.3390    0.0000 C.3     1  UNL1       -0.0404
     28 C           3.0102    3.5272    0.0000 C.3     1  UNL1        0.0662
     29 C           7.0583    2.2066    0.0000 C.3     1  UNL1       -0.0254
     30 C           6.3070   -0.0948    0.0000 C.3     1  UNL1        0.0999
     31 C           8.3063    2.4060    0.0000 C.3     1  UNL1       -0.0035
     32 C           5.0841   -0.9216    0.0000 C.3     1  UNL1        0.0369
     33 C           9.2232    2.0071    0.0000 C.3     1  UNL1       -0.0523
     34 C           7.1730    4.1404    0.0000 C.3     1  UNL1        0.0368
     35 C           2.1652    2.3093    0.0000 C.3     1  UNL1        0.0368
     36 C           2.2735    5.0948    0.0000 C.3     1  UNL1        0.0368
     37 C           7.1730   -1.5948    0.0000 C.2     1  UNL1        0.3410
     38 C           8.0390   -2.0948    0.0000 C.ar    1  UNL1        0.0801
     39 C           8.0390   -3.0948    0.0000 C.ar    1  UNL1        0.0474
     40 C           8.9050   -1.5948    0.0000 C.ar    1  UNL1       -0.0460
     41 C           8.9050   -3.5948    0.0000 C.ar    1  UNL1       -0.0397
     42 C           9.7711   -2.0948    0.0000 C.ar    1  UNL1       -0.0609
     43 C           9.7711   -3.0948    0.0000 C.ar    1  UNL1       -0.0600
     44 C           7.1730   -4.5948    0.0000 C.2     1  UNL1        0.2141
     45 C           6.3070   -5.0948    0.0000 C.3     1  UNL1        0.0125
     46 H           5.6192    0.4914    0.0000 H       1  UNL1        0.0340
     47 H           6.8696    2.8912    0.0000 H       1  UNL1        0.0499
     48 H           5.6589    3.0816    0.0000 H       1  UNL1        0.0312
     49 H           3.1824    2.5163    0.0000 H       1  UNL1        0.0358
     50 H           5.0777    0.2114    0.0000 H       1  UNL1        0.0629
     51 H           5.7700    2.9504    0.0000 H       1  UNL1        0.0602
     52 H           5.1378    4.2040    0.0000 H       1  UNL1        0.0272
     53 H           5.5634    3.4918    0.0000 H       1  UNL1        0.0272
     54 H           4.1781    4.8023    0.0000 H       1  UNL1        0.0351
     55 H           3.3064    3.8523    0.0000 H       1  UNL1        0.0603
     56 H           2.8482    1.4442    0.0000 H       1  UNL1        0.0319
     57 H           2.3956    2.1244    0.0000 H       1  UNL1        0.0319
     58 H           8.1217    1.0860    0.0000 H       1  UNL1        0.0433
     59 H           7.5553    0.4417    0.0000 H       1  UNL1        0.0433
     60 H           7.6689    1.4466    0.0000 H       1  UNL1        0.0273
     61 H           7.2704    0.7564    0.0000 H       1  UNL1        0.0273
     62 H           3.0883    4.1423    0.0000 H       1  UNL1        0.0600
     63 H           7.2704    2.7892    0.0000 H       1  UNL1        0.0290
     64 H           7.6689    2.0989    0.0000 H       1  UNL1        0.0290
     65 H           6.0949   -0.6774    0.0000 H       1  UNL1        0.0704
     66 H           5.6964    0.0129    0.0000 H       1  UNL1        0.0704
     67 H           3.6345   -0.3678    0.0000 H       1  UNL1        0.2105
     68 H           2.3639    1.1921    0.0000 H       1  UNL1        0.2103
     69 H           7.8566    2.8329    0.0000 H       1  UNL1        0.0424
     70 H           8.6486    2.9230    0.0000 H       1  UNL1        0.0424
     71 H           5.5802   -0.5497    0.0000 H       1  UNL1        0.0524
     72 H           5.4560   -1.4177    0.0000 H       1  UNL1        0.0524
     73 H           4.5880   -1.2935    0.0000 H       1  UNL1        0.0524
     74 H           9.4706    2.5756    0.0000 H       1  UNL1        0.0242
     75 H           9.7918    1.7598    0.0000 H       1  UNL1        0.0242
     76 H           8.9759    1.4386    0.0000 H       1  UNL1        0.0242
     77 H           6.8630    4.6773    0.0000 H       1  UNL1        0.0524
     78 H           7.7099    4.4504    0.0000 H       1  UNL1        0.0524
     79 H           7.4830    3.6034    0.0000 H       1  UNL1        0.0524
     80 H           2.7265    2.0459    0.0000 H       1  UNL1        0.0524
     81 H           1.9018    1.7480    0.0000 H       1  UNL1        0.0524
     82 H           1.6040    2.5727    0.0000 H       1  UNL1        0.0524
     83 H           1.6557    5.1470    0.0000 H       1  UNL1        0.0524
     84 H           2.3256    5.7126    0.0000 H       1  UNL1        0.0524
     85 H           2.8913    5.0426    0.0000 H       1  UNL1        0.0524
     86 H           8.9050   -0.9748    0.0000 H       1  UNL1        0.0626
     87 H           8.9050   -4.2148    0.0000 H       1  UNL1        0.0636
     88 H          10.3080   -1.7848    0.0000 H       1  UNL1        0.0618
     89 H           6.6361   -3.2848    0.0000 H       1  UNL1        0.1548
     90 H          10.3080   -3.4048    0.0000 H       1  UNL1        0.0618
     91 H           6.6170   -5.6317    0.0000 H       1  UNL1        0.0323
     92 H           5.7700   -5.4048    0.0000 H       1  UNL1        0.0323
     93 H           5.9970   -4.5578    0.0000 H       1  UNL1        0.0323
@<TRIPOS>BOND
     1    16     1    1
     2     1    67    1
     3    18     2    1
     4     2    68    1
     5    19     3    1
     6     3    32    1
     7    21     4    1
     8     4    34    1
     9    24     5    1
    10     5    35    1
    11    28     6    1
    12     6    36    1
    13     7    30    1
    14     7    37    1
    15     8    37    2
    16     9    44    2
    17    10    14    1
    18    10    26    1
    19    10    31    1
    20    11    39    1
    21    11    44   am
    22    11    89    1
    23    12    13    1
    24    12    14    1
    25    12    15    1
    26    12    21    1
    27    13    19    1
    28    13    20    1
    29    13    46    1
    30    14    16    1
    31    14    47    1
    32    15    17    1
    33    15    22    1
    34    15    48    1
    35    16    18    1
    36    16    19    1
    37    17    18    1
    38    17    24    1
    39    17    49    1
    40    18    25    1
    41    19    50    1
    42    20    26    1
    43    20    27    1
    44    20    30    1
    45    21    29    1
    46    21    51    1
    47    22    23    1
    48    22    52    1
    49    22    53    1
    50    23    24    1
    51    23    28    1
    52    23    54    1
    53    24    55    1
    54    25    28    1
    55    25    56    1
    56    25    57    1
    57    26    58    1
    58    26    59    1
    59    27    29    1
    60    27    60    1
    61    27    61    1
    62    28    62    1
    63    29    63    1
    64    29    64    1
    65    30    65    1
    66    30    66    1
    67    31    33    1
    68    31    69    1
    69    31    70    1
    70    32    71    1
    71    32    72    1
    72    32    73    1
    73    33    74    1
    74    33    75    1
    75    33    76    1
    76    34    77    1
    77    34    78    1
    78    34    79    1
    79    35    80    1
    80    35    81    1
    81    35    82    1
    82    36    83    1
    83    36    84    1
    84    36    85    1
    85    37    38    1
    86    38    39   ar
    87    38    40   ar
    88    39    41   ar
    89    40    42   ar
    90    40    86    1
    91    41    43   ar
    92    41    87    1
    93    42    43   ar
    94    42    88    1
    95    43    90    1
    96    44    45    1
    97    45    91    1
    98    45    92    1
    99    45    93    1
