@<TRIPOS>MOLECULE
IMPHY007027
 152 160 0 0 0
SMALL
GASTEIGER

@<TRIPOS>ATOM
      1 O          10.8882    2.6557    0.0000 O.3     1  UNL1       -0.3450
      2 O           9.3592    3.8876    0.0000 O.3     1  UNL1       -0.3642
      3 O          12.1600   -2.9264    0.0000 O.2     1  UNL1       -0.2971
      4 O           9.4651   -5.5884    0.0000 O.3     1  UNL1       -0.3454
      5 O           7.7331   -5.5884    0.0000 O.3     1  UNL1       -0.3405
      6 O          13.5227    5.7550    0.0000 O.3     1  UNL1       -0.3484
      7 O           9.4651   -7.5884    0.0000 O.3     1  UNL1       -0.3841
      8 O           7.7331   -8.5884    0.0000 O.3     1  UNL1       -0.3864
      9 O           6.0010   -7.5884    0.0000 O.3     1  UNL1       -0.3402
     10 O           6.0010   -4.5884    0.0000 O.3     1  UNL1       -0.3461
     11 O          15.0202    6.6255    0.0000 O.3     1  UNL1       -0.3405
     12 O          14.5279    4.0260    0.0000 O.3     1  UNL1       -0.3841
     13 O           5.1350   -6.0884    0.0000 O.3     1  UNL1       -0.3461
     14 O          16.5279    4.0319    0.0000 O.3     1  UNL1       -0.3864
     15 O           4.2690   -4.5884    0.0000 O.3     1  UNL1       -0.3461
     16 O          17.5227    5.7670    0.0000 O.3     1  UNL1       -0.3865
     17 O           4.2690   -8.5884    0.0000 O.3     1  UNL1       -0.3841
     18 O           2.5369   -7.5884    0.0000 O.3     1  UNL1       -0.3864
     19 O          16.0150    8.3605    0.0000 O.3     1  UNL1       -0.3924
     20 O           6.0010   -2.5884    0.0000 O.3     1  UNL1       -0.3841
     21 O           2.5369   -5.5884    0.0000 O.3     1  UNL1       -0.3869
     22 O           4.2690   -1.5884    0.0000 O.3     1  UNL1       -0.3864
     23 O           2.5369   -2.5884    0.0000 O.3     1  UNL1       -0.3869
     24 C           9.4944    0.6085    0.0000 C.3     1  UNL1       -0.0233
     25 C          10.3623    0.1118    0.0000 C.3     1  UNL1       -0.0295
     26 C           9.6999    1.5811    0.0000 C.3     1  UNL1       -0.0015
     27 C          10.3662   -0.8882    0.0000 C.3     1  UNL1       -0.0276
     28 C           9.5021   -1.3915    0.0000 C.3     1  UNL1       -0.0315
     29 C          10.6882    1.6880    0.0000 C.3     1  UNL1        0.0660
     30 C          11.0968    0.7817    0.0000 C.3     1  UNL1       -0.0226
     31 C           9.4901   -2.4331    0.0000 C.3     1  UNL1       -0.0193
     32 C           8.6303    0.1051    0.0000 C.3     1  UNL1       -0.0467
     33 C           8.6342   -0.8949    0.0000 C.3     1  UNL1       -0.0489
     34 C           9.2976    2.4837    0.0000 C.3     1  UNL1        0.0158
     35 C          10.3901   -2.9574    0.0000 C.3     1  UNL1        0.0255
     36 C          11.2781   -1.3915    0.0000 C.3     1  UNL1        0.0095
     37 C          10.0305    3.1465    0.0000 C.3     1  UNL1        0.1704
     38 C           8.6264    1.1051    0.0000 C.3     1  UNL1       -0.0590
     39 C           8.5402   -2.9574    0.0000 C.3     1  UNL1       -0.0444
     40 C          11.2902   -2.4331    0.0000 C.2     1  UNL1        0.1373
     41 C          10.4027   -4.0423    0.0000 C.3     1  UNL1       -0.0165
     42 C           8.6260   -1.9297    0.0000 C.3     1  UNL1       -0.0587
     43 C           8.3192    2.6904    0.0000 C.3     1  UNL1       -0.0572
     44 C           8.5276   -4.0423    0.0000 C.3     1  UNL1       -0.0260
     45 C           9.4651   -4.5884    0.0000 C.3     1  UNL1        0.0625
     46 C          10.5279    4.0140    0.0000 C.3     1  UNL1        0.0018
     47 C          11.5279    4.0170    0.0000 C.3     1  UNL1       -0.0435
     48 C          12.0253    4.8845    0.0000 C.3     1  UNL1       -0.0201
     49 C           8.5991   -6.0884    0.0000 C.3     1  UNL1        0.1882
     50 C          13.0253    4.8875    0.0000 C.3     1  UNL1        0.0533
     51 C          11.5228    5.7490    0.0000 C.3     1  UNL1       -0.0603
     52 C           8.5991   -7.0884    0.0000 C.3     1  UNL1        0.1341
     53 C           7.7331   -7.5884    0.0000 C.3     1  UNL1        0.1144
     54 C           6.8671   -6.0884    0.0000 C.3     1  UNL1        0.1137
     55 C           6.8671   -7.0884    0.0000 C.3     1  UNL1        0.1184
     56 C           6.0010   -5.5884    0.0000 C.3     1  UNL1        0.0796
     57 C          14.5227    5.7580    0.0000 C.3     1  UNL1        0.1879
     58 C          15.0253    4.8935    0.0000 C.3     1  UNL1        0.1341
     59 C           5.1350   -7.0884    0.0000 C.3     1  UNL1        0.1880
     60 C          16.0253    4.8965    0.0000 C.3     1  UNL1        0.1141
     61 C          16.0201    6.6285    0.0000 C.3     1  UNL1        0.1130
     62 C          16.5227    5.7640    0.0000 C.3     1  UNL1        0.1119
     63 C           4.2690   -7.5884    0.0000 C.3     1  UNL1        0.1341
     64 C           5.1350   -4.0884    0.0000 C.3     1  UNL1        0.1876
     65 C           3.4030   -7.0884    0.0000 C.3     1  UNL1        0.1137
     66 C          16.5176    7.4960    0.0000 C.3     1  UNL1        0.0730
     67 C           5.1350   -3.0884    0.0000 C.3     1  UNL1        0.1341
     68 C           4.2690   -5.5884    0.0000 C.3     1  UNL1        0.0792
     69 C           3.4030   -6.0884    0.0000 C.3     1  UNL1        0.1069
     70 C           4.2690   -2.5884    0.0000 C.3     1  UNL1        0.1137
     71 C           3.4030   -4.0884    0.0000 C.3     1  UNL1        0.0792
     72 C           3.4030   -3.0884    0.0000 C.3     1  UNL1        0.1069
     73 H          10.9300   -0.1374    0.0000 H       1  UNL1        0.0310
     74 H           9.0833    1.5158    0.0000 H       1  UNL1        0.0335
     75 H          10.8995   -0.5720    0.0000 H       1  UNL1        0.0310
     76 H          10.0378   -1.7036    0.0000 H       1  UNL1        0.0309
     77 H          11.3044    1.7559    0.0000 H       1  UNL1        0.0600
     78 H          11.4642    0.2823    0.0000 H       1  UNL1        0.0293
     79 H          11.6321    1.0946    0.0000 H       1  UNL1        0.0293
     80 H           8.4160    0.6869    0.0000 H       1  UNL1        0.0271
     81 H           8.0201   -0.0049    0.0000 H       1  UNL1        0.0271
     82 H           8.0232   -0.7895    0.0000 H       1  UNL1        0.0268
     83 H           8.4244   -1.4783    0.0000 H       1  UNL1        0.0268
     84 H           8.9078    2.0015    0.0000 H       1  UNL1        0.0354
     85 H          10.9294   -3.2632    0.0000 H       1  UNL1        0.0384
     86 H          11.8902   -1.4905    0.0000 H       1  UNL1        0.0345
     87 H          11.4804   -0.8054    0.0000 H       1  UNL1        0.0345
     88 H           8.9344    1.6433    0.0000 H       1  UNL1        0.0235
     89 H           8.0883    1.4131    0.0000 H       1  UNL1        0.0235
     90 H           8.3185    0.5670    0.0000 H       1  UNL1        0.0235
     91 H           8.3379   -2.3713    0.0000 H       1  UNL1        0.0272
     92 H           7.9281   -3.0564    0.0000 H       1  UNL1        0.0272
     93 H          10.6185   -4.6235    0.0000 H       1  UNL1        0.0297
     94 H          11.0123   -3.9291    0.0000 H       1  UNL1        0.0297
     95 H           8.9380   -1.3940    0.0000 H       1  UNL1        0.0235
     96 H           8.0902   -1.6177    0.0000 H       1  UNL1        0.0235
     97 H           8.3139   -2.4655    0.0000 H       1  UNL1        0.0235
     98 H           8.4473    3.2970    0.0000 H       1  UNL1        0.0234
     99 H           7.7125    2.8185    0.0000 H       1  UNL1        0.0234
    100 H           8.1910    2.0838    0.0000 H       1  UNL1        0.0234
    101 H           7.9180   -3.9291    0.0000 H       1  UNL1        0.0290
    102 H           8.3118   -4.6235    0.0000 H       1  UNL1        0.0290
    103 H          10.0027   -4.8974    0.0000 H       1  UNL1        0.0597
    104 H          10.6338    4.6249    0.0000 H       1  UNL1        0.0317
    105 H           9.9447    4.2243    0.0000 H       1  UNL1        0.0317
    106 H           9.5490    4.4778    0.0000 H       1  UNL1        0.2128
    107 H          11.4221    3.4061    0.0000 H       1  UNL1        0.0270
    108 H          12.1112    3.8067    0.0000 H       1  UNL1        0.0270
    109 H          11.4053    4.8826    0.0000 H       1  UNL1        0.0320
    110 H           8.5991   -5.4684    0.0000 H       1  UNL1        0.0937
    111 H          12.9195    4.2766    0.0000 H       1  UNL1        0.0563
    112 H          13.6086    4.6772    0.0000 H       1  UNL1        0.0563
    113 H          12.0588    6.0606    0.0000 H       1  UNL1        0.0233
    114 H          11.2112    6.2850    0.0000 H       1  UNL1        0.0233
    115 H          10.9868    5.4374    0.0000 H       1  UNL1        0.0233
    116 H           8.5991   -7.7084    0.0000 H       1  UNL1        0.0671
    117 H           7.1962   -7.8984    0.0000 H       1  UNL1        0.0648
    118 H           6.8671   -5.4684    0.0000 H       1  UNL1        0.0647
    119 H           6.3301   -6.7784    0.0000 H       1  UNL1        0.0651
    120 H          10.0021   -7.2784    0.0000 H       1  UNL1        0.2101
    121 H           5.3905   -5.4807    0.0000 H       1  UNL1        0.0587
    122 H           5.7890   -6.1710    0.0000 H       1  UNL1        0.0587
    123 H          14.2111    6.2940    0.0000 H       1  UNL1        0.0937
    124 H           8.2700   -8.8984    0.0000 H       1  UNL1        0.2100
    125 H          14.4053    4.8916    0.0000 H       1  UNL1        0.0671
    126 H           5.1350   -7.7084    0.0000 H       1  UNL1        0.0937
    127 H          15.7169    4.3586    0.0000 H       1  UNL1        0.0648
    128 H          15.7085    7.1645    0.0000 H       1  UNL1        0.0647
    129 H          16.8343    5.2280    0.0000 H       1  UNL1        0.0647
    130 H           3.7320   -7.8984    0.0000 H       1  UNL1        0.0671
    131 H           5.1350   -4.7084    0.0000 H       1  UNL1        0.0937
    132 H          14.8395    3.4899    0.0000 H       1  UNL1        0.2101
    133 H           2.8660   -6.7784    0.0000 H       1  UNL1        0.0647
    134 H          16.9937    7.0989    0.0000 H       1  UNL1        0.0584
    135 H          16.9913    7.8960    0.0000 H       1  UNL1        0.0584
    136 H           5.1350   -2.4684    0.0000 H       1  UNL1        0.0671
    137 H           4.6675   -5.1134    0.0000 H       1  UNL1        0.0587
    138 H           3.8705   -5.1134    0.0000 H       1  UNL1        0.0587
    139 H           3.4030   -5.4684    0.0000 H       1  UNL1        0.0643
    140 H          17.1479    4.0338    0.0000 H       1  UNL1        0.2100
    141 H          17.8311    6.3048    0.0000 H       1  UNL1        0.2100
    142 H           3.7320   -8.8984    0.0000 H       1  UNL1        0.2101
    143 H           3.7320   -2.2784    0.0000 H       1  UNL1        0.0647
    144 H           2.7924   -3.9807    0.0000 H       1  UNL1        0.0587
    145 H           3.1909   -4.6710    0.0000 H       1  UNL1        0.0587
    146 H           3.9399   -3.3984    0.0000 H       1  UNL1        0.0643
    147 H           2.0000   -7.2784    0.0000 H       1  UNL1        0.2100
    148 H          16.3234    8.8984    0.0000 H       1  UNL1        0.2095
    149 H           6.0010   -1.9684    0.0000 H       1  UNL1        0.2101
    150 H           2.0000   -5.8984    0.0000 H       1  UNL1        0.2100
    151 H           3.7320   -1.2784    0.0000 H       1  UNL1        0.2100
    152 H           2.0000   -2.8984    0.0000 H       1  UNL1        0.2100
@<TRIPOS>BOND
     1     1    29    1
     2     1    37    1
     3     2    37    1
     4     2   106    1
     5     3    40    2
     6     4    45    1
     7     4    49    1
     8     5    49    1
     9     5    54    1
    10     6    50    1
    11     6    57    1
    12     7    52    1
    13     7   120    1
    14     8    53    1
    15     8   124    1
    16     9    55    1
    17     9    59    1
    18    10    56    1
    19    10    64    1
    20    11    57    1
    21    11    61    1
    22    12    58    1
    23    12   132    1
    24    13    59    1
    25    13    68    1
    26    14    60    1
    27    14   140    1
    28    15    64    1
    29    15    71    1
    30    16    62    1
    31    16   141    1
    32    17    63    1
    33    17   142    1
    34    18    65    1
    35    18   147    1
    36    19    66    1
    37    19   148    1
    38    20    67    1
    39    20   149    1
    40    21    69    1
    41    21   150    1
    42    22    70    1
    43    22   151    1
    44    23    72    1
    45    23   152    1
    46    24    25    1
    47    24    26    1
    48    24    32    1
    49    24    38    1
    50    25    27    1
    51    25    30    1
    52    25    73    1
    53    26    29    1
    54    26    34    1
    55    26    74    1
    56    27    28    1
    57    27    36    1
    58    27    75    1
    59    28    31    1
    60    28    33    1
    61    28    76    1
    62    29    30    1
    63    29    77    1
    64    30    78    1
    65    30    79    1
    66    31    35    1
    67    31    39    1
    68    31    42    1
    69    32    33    1
    70    32    80    1
    71    32    81    1
    72    33    82    1
    73    33    83    1
    74    34    37    1
    75    34    43    1
    76    34    84    1
    77    35    40    1
    78    35    41    1
    79    35    85    1
    80    36    40    1
    81    36    86    1
    82    36    87    1
    83    37    46    1
    84    38    88    1
    85    38    89    1
    86    38    90    1
    87    39    44    1
    88    39    91    1
    89    39    92    1
    90    41    45    1
    91    41    93    1
    92    41    94    1
    93    42    95    1
    94    42    96    1
    95    42    97    1
    96    43    98    1
    97    43    99    1
    98    43   100    1
    99    44    45    1
   100    44   101    1
   101    44   102    1
   102    45   103    1
   103    46    47    1
   104    46   104    1
   105    46   105    1
   106    47    48    1
   107    47   107    1
   108    47   108    1
   109    48    50    1
   110    48    51    1
   111    48   109    1
   112    49    52    1
   113    49   110    1
   114    50   111    1
   115    50   112    1
   116    51   113    1
   117    51   114    1
   118    51   115    1
   119    52    53    1
   120    52   116    1
   121    53    55    1
   122    53   117    1
   123    54    55    1
   124    54    56    1
   125    54   118    1
   126    55   119    1
   127    56   121    1
   128    56   122    1
   129    57    58    1
   130    57   123    1
   131    58    60    1
   132    58   125    1
   133    59    63    1
   134    59   126    1
   135    60    62    1
   136    60   127    1
   137    61    62    1
   138    61    66    1
   139    61   128    1
   140    62   129    1
   141    63    65    1
   142    63   130    1
   143    64    67    1
   144    64   131    1
   145    65    69    1
   146    65   133    1
   147    66   134    1
   148    66   135    1
   149    67    70    1
   150    67   136    1
   151    68    69    1
   152    68   137    1
   153    68   138    1
   154    69   139    1
   155    70    72    1
   156    70   143    1
   157    71    72    1
   158    71   144    1
   159    71   145    1
   160    72   146    1
