@<TRIPOS>MOLECULE
IMPHY009370
 165 172 0 0 0
SMALL
GASTEIGER

@<TRIPOS>ATOM
      1 O           6.3542    1.3133    0.0000 O.3     1  UNL1       -0.3915
      2 O           8.0569   -4.8769    0.0000 O.3     1  UNL1       -0.3449
      3 O           6.9502    3.7760    0.0000 O.3     1  UNL1       -0.3422
      4 O           6.3249   -4.8769    0.0000 O.3     1  UNL1       -0.3405
      5 O           6.5865    5.4694    0.0000 O.3     1  UNL1       -0.3405
      6 O           8.0569   -6.8769    0.0000 O.3     1  UNL1       -0.3378
      7 O           8.9056    4.1960    0.0000 O.3     1  UNL1       -0.3841
      8 O           6.3249   -7.8769    0.0000 O.3     1  UNL1       -0.3864
      9 O           9.5196    6.0994    0.0000 O.3     1  UNL1       -0.3864
     10 O           4.5928   -6.8769    0.0000 O.3     1  UNL1       -0.3865
     11 O           8.1782    7.5829    0.0000 O.3     1  UNL1       -0.3865
     12 O           5.2451    6.9529    0.0000 O.3     1  UNL1       -0.3460
     13 O           7.1909   -8.3769    0.0000 O.3     1  UNL1       -0.3405
     14 O           3.7268   -5.3769    0.0000 O.3     1  UNL1       -0.3924
     15 O           9.7890   -7.8769    0.0000 O.3     1  UNL1       -0.3841
     16 O           9.7890   -9.8769    0.0000 O.3     1  UNL1       -0.3864
     17 O           4.7802    8.6732    0.0000 O.3     1  UNL1       -0.3405
     18 O           8.0569  -10.8769    0.0000 O.3     1  UNL1       -0.3865
     19 O           3.0820    6.7209    0.0000 O.3     1  UNL1       -0.3841
     20 O           5.4589   -9.3769    0.0000 O.3     1  UNL1       -0.3924
     21 O           2.1928    8.7065    0.0000 O.3     1  UNL1       -0.3864
     22 O           2.8921   10.5705    0.0000 O.3     1  UNL1       -0.3924
     23 C           8.9580   -0.1767    0.0000 C.3     1  UNL1       -0.0229
     24 C           8.9541    0.8233    0.0000 C.3     1  UNL1       -0.0209
     25 C           8.0939   -0.6800    0.0000 C.3     1  UNL1       -0.0271
     26 C           8.0819   -1.7216    0.0000 C.3     1  UNL1       -0.0252
     27 C           8.0862    1.3200    0.0000 C.3     1  UNL1       -0.0036
     28 C           8.9819   -2.2459    0.0000 C.3     1  UNL1       -0.0278
     29 C           9.8699   -0.6800    0.0000 C.3     1  UNL1       -0.0466
     30 C           8.2916    2.2926    0.0000 C.3     1  UNL1       -0.0063
     31 C           7.2260   -0.1834    0.0000 C.3     1  UNL1       -0.0227
     32 C           7.2221    0.8166    0.0000 C.3     1  UNL1        0.0592
     33 C           9.6886    1.4932    0.0000 C.3     1  UNL1       -0.0464
     34 C           9.8820   -1.7216    0.0000 C.3     1  UNL1       -0.0486
     35 C           8.9945   -3.3308    0.0000 C.3     1  UNL1       -0.0052
     36 C           9.2800    2.3994    0.0000 C.3     1  UNL1       -0.0467
     37 C           7.1320   -2.2459    0.0000 C.3     1  UNL1       -0.0447
     38 C           9.9421    0.0007    0.0000 C.3     1  UNL1       -0.0588
     39 C           9.9396    0.6534    0.0000 C.3     1  UNL1       -0.0587
     40 C           7.2178   -1.2183    0.0000 C.3     1  UNL1       -0.0590
     41 C           8.0569   -3.8769    0.0000 C.3     1  UNL1        0.0672
     42 C           7.6209    3.0343    0.0000 C.3     1  UNL1        0.0733
     43 C           7.1194   -3.3308    0.0000 C.3     1  UNL1       -0.0255
     44 C           9.9944   -3.3231    0.0000 C.3     1  UNL1       -0.0572
     45 C           9.5011   -4.1930    0.0000 C.3     1  UNL1       -0.0572
     46 C           8.3627    3.7050    0.0000 C.3     1  UNL1       -0.0202
     47 C           6.8792    2.3636    0.0000 C.3     1  UNL1       -0.0354
     48 C           9.3144    3.3980    0.0000 C.3     1  UNL1       -0.0319
     49 C           7.1909   -5.3769    0.0000 C.3     1  UNL1        0.1886
     50 C           7.2572    4.7277    0.0000 C.3     1  UNL1        0.1885
     51 C           7.1909   -6.3769    0.0000 C.3     1  UNL1        0.1406
     52 C           8.2349    4.9377    0.0000 C.3     1  UNL1        0.1341
     53 C          10.0561    4.0687    0.0000 C.2     1  UNL1       -0.0852
     54 C           6.3249   -6.8769    0.0000 C.3     1  UNL1        0.1144
     55 C           8.5419    5.8894    0.0000 C.3     1  UNL1        0.1141
     56 C           5.4589   -5.3769    0.0000 C.3     1  UNL1        0.1130
     57 C           6.8935    6.4212    0.0000 C.3     1  UNL1        0.1134
     58 C           5.4589   -6.3769    0.0000 C.3     1  UNL1        0.1119
     59 C           7.8712    6.6312    0.0000 C.3     1  UNL1        0.1119
     60 C          11.0078    3.7617    0.0000 C.2     1  UNL1       -0.0796
     61 C           4.5928   -4.8769    0.0000 C.3     1  UNL1        0.0730
     62 C           6.2228    7.1629    0.0000 C.3     1  UNL1        0.0796
     63 C           8.0569   -7.8769    0.0000 C.3     1  UNL1        0.1885
     64 C          11.7495    4.4324    0.0000 C.3     1  UNL1       -0.0440
     65 C          11.2178    2.7840    0.0000 C.3     1  UNL1       -0.0440
     66 C           8.9230   -8.3769    0.0000 C.3     1  UNL1        0.1341
     67 C           8.9230   -9.3769    0.0000 C.3     1  UNL1        0.1141
     68 C           7.1909   -9.3769    0.0000 C.3     1  UNL1        0.1130
     69 C           8.0569   -9.8769    0.0000 C.3     1  UNL1        0.1119
     70 C           4.5744    7.6946    0.0000 C.3     1  UNL1        0.1880
     71 C           3.5801    7.5880    0.0000 C.3     1  UNL1        0.1341
     72 C           6.3249   -9.8769    0.0000 C.3     1  UNL1        0.0730
     73 C           3.1714    8.5006    0.0000 C.3     1  UNL1        0.1141
     74 C           3.9132    9.1714    0.0000 C.3     1  UNL1        0.1131
     75 C           3.8065   10.1657    0.0000 C.3     1  UNL1        0.0730
     76 H           8.8284   -1.1079    0.0000 H       1  UNL1        0.0312
     77 H           7.3973    1.8178    0.0000 H       1  UNL1        0.0335
     78 H           9.7213   -2.6652    0.0000 H       1  UNL1        0.0312
     79 H          10.4820   -0.7791    0.0000 H       1  UNL1        0.0271
     80 H          10.0722   -0.0940    0.0000 H       1  UNL1        0.0271
     81 H           8.5942    3.0869    0.0000 H       1  UNL1        0.0332
     82 H           6.6150   -0.0781    0.0000 H       1  UNL1        0.0293
     83 H           7.0162   -0.7668    0.0000 H       1  UNL1        0.0293
     84 H           7.2197    1.4366    0.0000 H       1  UNL1        0.0596
     85 H          10.0559    0.9938    0.0000 H       1  UNL1        0.0271
     86 H          10.2239    1.8061    0.0000 H       1  UNL1        0.0271
     87 H          10.0978   -2.3028    0.0000 H       1  UNL1        0.0268
     88 H          10.4916   -1.6084    0.0000 H       1  UNL1        0.0268
     89 H           9.8688    2.5935    0.0000 H       1  UNL1        0.0269
     90 H           9.1489    3.0054    0.0000 H       1  UNL1        0.0269
     91 H           6.9297   -1.6598    0.0000 H       1  UNL1        0.0271
     92 H           6.5199   -2.3449    0.0000 H       1  UNL1        0.0271
     93 H          10.0521   -0.6094    0.0000 H       1  UNL1        0.0235
     94 H          10.5523    0.1108    0.0000 H       1  UNL1        0.0235
     95 H           9.8321    0.6109    0.0000 H       1  UNL1        0.0235
     96 H           9.8343    0.0425    0.0000 H       1  UNL1        0.0235
     97 H          10.5506    0.5481    0.0000 H       1  UNL1        0.0235
     98 H          10.0449    1.2644    0.0000 H       1  UNL1        0.0235
     99 H           7.5298   -0.6825    0.0000 H       1  UNL1        0.0235
    100 H           6.6820   -0.9062    0.0000 H       1  UNL1        0.0235
    101 H           6.9057   -1.7540    0.0000 H       1  UNL1        0.0235
    102 H           8.5945   -4.1859    0.0000 H       1  UNL1        0.0602
    103 H           6.5098   -3.2176    0.0000 H       1  UNL1        0.0290
    104 H           6.9036   -3.9120    0.0000 H       1  UNL1        0.0290
    105 H           9.9992   -3.9431    0.0000 H       1  UNL1        0.0236
    106 H          10.6144   -3.3183    0.0000 H       1  UNL1        0.0236
    107 H           9.9897   -2.7031    0.0000 H       1  UNL1        0.0236
    108 H           8.9666   -4.5071    0.0000 H       1  UNL1        0.0236
    109 H           9.8153   -4.7275    0.0000 H       1  UNL1        0.0236
    110 H          10.0357   -3.8788    0.0000 H       1  UNL1        0.0236
    111 H           5.8184    1.0012    0.0000 H       1  UNL1        0.2098
    112 H           8.6526    4.2530    0.0000 H       1  UNL1        0.0296
    113 H           7.8733    4.0857    0.0000 H       1  UNL1        0.0296
    114 H           6.4634    2.8234    0.0000 H       1  UNL1        0.0257
    115 H           6.4194    1.9478    0.0000 H       1  UNL1        0.0257
    116 H           7.2951    1.9037    0.0000 H       1  UNL1        0.0257
    117 H           9.0245    2.8500    0.0000 H       1  UNL1        0.0308
    118 H           9.8038    3.0173    0.0000 H       1  UNL1        0.0308
    119 H           7.1909   -4.7569    0.0000 H       1  UNL1        0.0938
    120 H           7.6731    4.2679    0.0000 H       1  UNL1        0.0938
    121 H           7.1909   -6.9969    0.0000 H       1  UNL1        0.0675
    122 H           8.8411    5.0679    0.0000 H       1  UNL1        0.0671
    123 H           9.9259    4.6749    0.0000 H       1  UNL1        0.0571
    124 H           5.7880   -7.1869    0.0000 H       1  UNL1        0.0648
    125 H           8.7323    6.4795    0.0000 H       1  UNL1        0.0648
    126 H           5.4589   -4.7569    0.0000 H       1  UNL1        0.0647
    127 H           6.2874    6.2910    0.0000 H       1  UNL1        0.0647
    128 H           4.9219   -6.0669    0.0000 H       1  UNL1        0.0647
    129 H           7.4554    7.0910    0.0000 H       1  UNL1        0.0647
    130 H           9.5118    4.3262    0.0000 H       1  UNL1        0.2101
    131 H           4.9914   -4.4020    0.0000 H       1  UNL1        0.0584
    132 H           4.1943   -4.4020    0.0000 H       1  UNL1        0.0584
    133 H           6.7479    7.4926    0.0000 H       1  UNL1        0.0587
    134 H           5.9893    7.7372    0.0000 H       1  UNL1        0.0587
    135 H           8.5939   -7.5669    0.0000 H       1  UNL1        0.0938
    136 H           5.7880   -8.1869    0.0000 H       1  UNL1        0.2100
    137 H           9.7100    6.6895    0.0000 H       1  UNL1        0.2100
    138 H          10.6116    2.6538    0.0000 H       1  UNL1        0.0274
    139 H          11.3480    2.1778    0.0000 H       1  UNL1        0.0274
    140 H          12.1654    3.9726    0.0000 H       1  UNL1        0.0274
    141 H          12.2094    4.8483    0.0000 H       1  UNL1        0.0274
    142 H          11.3337    4.8923    0.0000 H       1  UNL1        0.0274
    143 H          11.8240    2.9142    0.0000 H       1  UNL1        0.0274
    144 H           4.5928   -7.4969    0.0000 H       1  UNL1        0.2100
    145 H           7.7624    8.0427    0.0000 H       1  UNL1        0.2100
    146 H           9.4599   -8.6869    0.0000 H       1  UNL1        0.0671
    147 H           3.1899   -5.0669    0.0000 H       1  UNL1        0.2095
    148 H           8.9230   -9.9969    0.0000 H       1  UNL1        0.0648
    149 H           6.6540   -9.0669    0.0000 H       1  UNL1        0.0647
    150 H           7.5200  -10.1869    0.0000 H       1  UNL1        0.0647
    151 H           4.3534    7.1153    0.0000 H       1  UNL1        0.0937
    152 H           9.7890   -7.2569    0.0000 H       1  UNL1        0.2101
    153 H           2.9609    7.6191    0.0000 H       1  UNL1        0.0671
    154 H           5.9264  -10.3519    0.0000 H       1  UNL1        0.0584
    155 H           6.7234  -10.3519    0.0000 H       1  UNL1        0.0584
    156 H           9.7890  -10.4969    0.0000 H       1  UNL1        0.2100
    157 H           3.0097    9.0992    0.0000 H       1  UNL1        0.0648
    158 H           4.4324    9.5101    0.0000 H       1  UNL1        0.0647
    159 H           7.5200  -11.1869    0.0000 H       1  UNL1        0.2100
    160 H           2.4620    6.7196    0.0000 H       1  UNL1        0.2101
    161 H           4.9219   -9.6869    0.0000 H       1  UNL1        0.2095
    162 H           4.4251   10.1237    0.0000 H       1  UNL1        0.0584
    163 H           3.9552   10.7676    0.0000 H       1  UNL1        0.0584
    164 H           2.0000    9.2957    0.0000 H       1  UNL1        0.2100
    165 H           2.8260   11.1869    0.0000 H       1  UNL1        0.2095
@<TRIPOS>BOND
     1    32     1    1
     2     1   111    1
     3    41     2    1
     4    49     2    1
     5    42     3    1
     6    50     3    1
     7     4    49    1
     8     4    56    1
     9     5    50    1
    10     5    57    1
    11    51     6    1
    12    63     6    1
    13    52     7    1
    14     7   130    1
    15    54     8    1
    16     8   136    1
    17    55     9    1
    18     9   137    1
    19    58    10    1
    20    10   144    1
    21    59    11    1
    22    11   145    1
    23    12    62    1
    24    70    12    1
    25    13    63    1
    26    13    68    1
    27    14    61    1
    28    14   147    1
    29    66    15    1
    30    15   152    1
    31    67    16    1
    32    16   156    1
    33    17    70    1
    34    17    74    1
    35    69    18    1
    36    18   159    1
    37    71    19    1
    38    19   160    1
    39    20    72    1
    40    20   161    1
    41    73    21    1
    42    21   164    1
    43    22    75    1
    44    22   165    1
    45    23    24    1
    46    23    25    1
    47    23    29    1
    48    23    38    1
    49    24    27    1
    50    24    33    1
    51    24    39    1
    52    25    26    1
    53    25    31    1
    54    25    76    1
    55    26    28    1
    56    26    37    1
    57    26    40    1
    58    27    30    1
    59    27    32    1
    60    27    77    1
    61    28    34    1
    62    28    35    1
    63    28    78    1
    64    29    34    1
    65    29    79    1
    66    29    80    1
    67    30    36    1
    68    30    42    1
    69    30    81    1
    70    31    32    1
    71    31    82    1
    72    31    83    1
    73    32    84    1
    74    33    36    1
    75    33    85    1
    76    33    86    1
    77    34    87    1
    78    34    88    1
    79    35    41    1
    80    35    44    1
    81    35    45    1
    82    36    89    1
    83    36    90    1
    84    37    43    1
    85    37    91    1
    86    37    92    1
    87    38    93    1
    88    38    94    1
    89    38    95    1
    90    39    96    1
    91    39    97    1
    92    39    98    1
    93    40    99    1
    94    40   100    1
    95    40   101    1
    96    41    43    1
    97    41   102    1
    98    42    46    1
    99    42    47    1
   100    43   103    1
   101    43   104    1
   102    44   105    1
   103    44   106    1
   104    44   107    1
   105    45   108    1
   106    45   109    1
   107    45   110    1
   108    46    48    1
   109    46   112    1
   110    46   113    1
   111    47   114    1
   112    47   115    1
   113    47   116    1
   114    48    53    1
   115    48   117    1
   116    48   118    1
   117    49    51    1
   118    49   119    1
   119    50    52    1
   120    50   120    1
   121    51    54    1
   122    51   121    1
   123    52    55    1
   124    52   122    1
   125    53    60    2
   126    53   123    1
   127    54    58    1
   128    54   124    1
   129    55    59    1
   130    55   125    1
   131    56    58    1
   132    56    61    1
   133    56   126    1
   134    57    59    1
   135    57    62    1
   136    57   127    1
   137    58   128    1
   138    59   129    1
   139    60    64    1
   140    60    65    1
   141    61   131    1
   142    61   132    1
   143    62   133    1
   144    62   134    1
   145    63    66    1
   146    63   135    1
   147    64   140    1
   148    64   141    1
   149    64   142    1
   150    65   138    1
   151    65   139    1
   152    65   143    1
   153    66    67    1
   154    66   146    1
   155    67    69    1
   156    67   148    1
   157    68    69    1
   158    68    72    1
   159    68   149    1
   160    69   150    1
   161    70    71    1
   162    70   151    1
   163    71    73    1
   164    71   153    1
   165    72   154    1
   166    72   155    1
   167    73    74    1
   168    73   157    1
   169    74    75    1
   170    74   158    1
   171    75   162    1
   172    75   163    1
