@<TRIPOS>MOLECULE
IMPHY004466
 26 28 0 0 0
SMALL
GASTEIGER

@<TRIPOS>ATOM
      1 O           4.0899   -1.2379    0.0000 O.3     1  UNL1       -0.4802
      2 O           4.9567    0.2616    0.0000 O.2     1  UNL1       -0.2504
      3 C           2.5739    0.4251    0.0000 C.3     1  UNL1       -0.0101
      4 C           2.3886    1.1982    0.0000 C.3     1  UNL1       -0.0307
      5 C           2.0000    0.0050    0.0000 C.3     1  UNL1       -0.0307
      6 C           3.2246    0.2625    0.0000 C.3     1  UNL1        0.0735
      7 C           4.0843    0.5878    0.0000 C.3     1  UNL1       -0.0245
      8 C           3.3827    1.3315    0.0000 C.3     1  UNL1       -0.0455
      9 C           3.3827   -0.3734    0.0000 C.3     1  UNL1       -0.0455
     10 C           2.8211    1.5482    0.0000 C.3     1  UNL1       -0.0580
     11 C           3.9331    1.1684    0.0000 C.3     1  UNL1       -0.0486
     12 C           4.0904   -0.2379    0.0000 C.2     1  UNL1        0.3115
     13 H           1.8445    1.8512    0.0000 H       1  UNL1        0.0309
     14 H           1.2518   -0.3983    0.0000 H       1  UNL1        0.0309
     15 H           4.7031    0.6267    0.0000 H       1  UNL1        0.0312
     16 H           3.9117    1.6548    0.0000 H       1  UNL1        0.0271
     17 H           3.1754    1.9158    0.0000 H       1  UNL1        0.0271
     18 H           3.1480   -0.9472    0.0000 H       1  UNL1        0.0271
     19 H           3.9240   -0.6757    0.0000 H       1  UNL1        0.0271
     20 H           3.4266    1.4150    0.0000 H       1  UNL1        0.0236
     21 H           2.9543    2.1537    0.0000 H       1  UNL1        0.0236
     22 H           2.2156    1.6814    0.0000 H       1  UNL1        0.0236
     23 H           4.4214    0.7864    0.0000 H       1  UNL1        0.0240
     24 H           4.3150    1.6567    0.0000 H       1  UNL1        0.0240
     25 H           3.4447    1.5503    0.0000 H       1  UNL1        0.0240
     26 H           4.6267   -1.5482    0.0000 H       1  UNL1        0.2951
@<TRIPOS>BOND
     1     1    12    1
     2     1    26    1
     3     2    12    2
     4     3     4    1
     5     3     5    1
     6     3     6    1
     7     3    10    1
     8     4     5    1
     9     4     8    1
    10     4    13    1
    11     5     9    1
    12     5    14    1
    13     6     7    1
    14     6    11    1
    15     6    12    1
    16     7     8    1
    17     7     9    1
    18     7    15    1
    19     8    16    1
    20     8    17    1
    21     9    18    1
    22     9    19    1
    23    10    20    1
    24    10    21    1
    25    10    22    1
    26    11    23    1
    27    11    24    1
    28    11    25    1
