@<TRIPOS>MOLECULE
IMPHY001490
 45 49 0 0 0
SMALL
GASTEIGER

@<TRIPOS>ATOM
      1 O           5.7497    3.0374    0.0000 O.3     1  UNL1       -0.4562
      2 O           3.4519   -2.6190    0.0000 O.3     1  UNL1       -0.4526
      3 O           2.0000   -1.7807    0.0000 O.3     1  UNL1       -0.4526
      4 O           2.8197    1.9626    0.0000 O.3     1  UNL1       -0.5057
      5 O           7.1333    1.9234    0.0000 O.2     1  UNL1       -0.2449
      6 O           8.8819    0.4626    0.0000 O.3     1  UNL1       -0.4913
      7 O           7.1498   -2.5374    0.0000 O.3     1  UNL1       -0.4913
      8 O           8.8819   -1.5374    0.0000 O.3     1  UNL1       -0.5009
      9 C           5.4178    0.4626    0.0000 C.ar    1  UNL1        0.0047
     10 C           4.5518   -0.0374    0.0000 C.ar    1  UNL1       -0.0022
     11 C           5.4178    1.4626    0.0000 C.ar    1  UNL1        0.0771
     12 C           4.5518    1.9626    0.0000 C.ar    1  UNL1        0.0463
     13 C           3.6857    0.4626    0.0000 C.ar    1  UNL1        0.0283
     14 C           3.6857    1.4626    0.0000 C.ar    1  UNL1        0.1319
     15 C           4.7610    2.9344    0.0000 C.3     1  UNL1        0.1220
     16 C           6.2838   -0.0374    0.0000 C.ar    1  UNL1       -0.0094
     17 C           4.5678   -1.0789    0.0000 C.ar    1  UNL1       -0.0077
     18 C           2.7757   -0.0443    0.0000 C.ar    1  UNL1       -0.0049
     19 C           3.6698   -1.6067    0.0000 C.ar    1  UNL1        0.1668
     20 C           6.1548    2.1296    0.0000 C.2     1  UNL1        0.3406
     21 C           2.7677   -1.0859    0.0000 C.ar    1  UNL1        0.1669
     22 C           6.2838   -1.0374    0.0000 C.ar    1  UNL1       -0.0083
     23 C           7.1498    0.4626    0.0000 C.ar    1  UNL1       -0.0083
     24 C           2.4220   -2.7263    0.0000 C.3     1  UNL1        0.2332
     25 C           8.0159   -0.0374    0.0000 C.ar    1  UNL1        0.1656
     26 C           7.1498   -1.5374    0.0000 C.ar    1  UNL1        0.1656
     27 C           8.0159   -1.0374    0.0000 C.ar    1  UNL1        0.2010
     28 C           8.8819    1.4626    0.0000 C.3     1  UNL1        0.0790
     29 C           8.0159   -3.0374    0.0000 C.3     1  UNL1        0.0790
     30 H           4.7618    3.5544    0.0000 H       1  UNL1        0.0750
     31 H           4.1445    3.0004    0.0000 H       1  UNL1        0.0750
     32 H           5.1083   -1.3827    0.0000 H       1  UNL1        0.0662
     33 H           2.2424    0.2719    0.0000 H       1  UNL1        0.0663
     34 H           5.7469   -1.3474    0.0000 H       1  UNL1        0.0661
     35 H           7.1498    1.0826    0.0000 H       1  UNL1        0.0661
     36 H           1.8324   -2.9181    0.0000 H       1  UNL1        0.1166
     37 H           2.5507   -3.3328    0.0000 H       1  UNL1        0.1166
     38 H           2.8197    2.5826    0.0000 H       1  UNL1        0.2922
     39 H           9.4188   -1.2274    0.0000 H       1  UNL1        0.2924
     40 H           9.5019    1.4626    0.0000 H       1  UNL1        0.0660
     41 H           8.8819    2.0826    0.0000 H       1  UNL1        0.0660
     42 H           8.2619    1.4626    0.0000 H       1  UNL1        0.0660
     43 H           7.7059   -3.5744    0.0000 H       1  UNL1        0.0660
     44 H           8.5528   -3.3474    0.0000 H       1  UNL1        0.0660
     45 H           8.3259   -2.5005    0.0000 H       1  UNL1        0.0660
@<TRIPOS>BOND
     1     1    15    1
     2     1    20    1
     3     2    19    1
     4     2    24    1
     5     3    21    1
     6     3    24    1
     7     4    14    1
     8     4    38    1
     9     5    20    2
    10     6    25    1
    11     6    28    1
    12     7    26    1
    13     7    29    1
    14     8    27    1
    15     8    39    1
    16     9    10   ar
    17     9    11   ar
    18     9    16    1
    19    10    13   ar
    20    10    17   ar
    21    11    12   ar
    22    11    20    1
    23    12    14   ar
    24    12    15    1
    25    13    14   ar
    26    13    18   ar
    27    15    30    1
    28    15    31    1
    29    16    22   ar
    30    16    23   ar
    31    17    19   ar
    32    17    32    1
    33    18    21   ar
    34    18    33    1
    35    19    21   ar
    36    22    26   ar
    37    22    34    1
    38    23    25   ar
    39    23    35    1
    40    24    36    1
    41    24    37    1
    42    25    27   ar
    43    26    27   ar
    44    28    40    1
    45    28    41    1
    46    28    42    1
    47    29    43    1
    48    29    44    1
    49    29    45    1
