@<TRIPOS>MOLECULE
IMPHY012482
 41 42 0 0 0
SMALL
GASTEIGER

@<TRIPOS>ATOM
      1 O           8.7694   -0.8334    0.0000 O.3     1  UNL1       -0.4574
      2 O           4.1329   -0.9178    0.0000 O.3     1  UNL1       -0.3874
      3 O          10.3490   -0.0208    0.0000 O.2     1  UNL1       -0.2453
      4 O           2.6200    1.6727    0.0000 O.3     1  UNL1       -0.3920
      5 C           7.8217   -0.5334    0.0000 C.3     1  UNL1        0.1112
      6 C           7.8167    0.4666    0.0000 C.3     1  UNL1        0.0309
      7 C           7.0430   -1.1608    0.0000 C.3     1  UNL1       -0.0087
      8 C           6.0670   -0.9431    0.0000 C.3     1  UNL1       -0.0170
      9 C           7.0318    1.0862    0.0000 C.3     1  UNL1       -0.0240
     10 C           5.6286   -0.0443    0.0000 C.2     1  UNL1       -0.0423
     11 C           6.0580    0.8588    0.0000 C.2     1  UNL1       -0.0814
     12 C           8.7614    0.7760    0.0000 C.2     1  UNL1        0.0364
     13 C           4.6286   -0.0493    0.0000 C.3     1  UNL1        0.0788
     14 C           5.4474   -1.7281    0.0000 C.3     1  UNL1       -0.0585
     15 C           9.3490   -0.0258    0.0000 C.2     1  UNL1        0.3353
     16 C           4.1243    0.8142    0.0000 C.3     1  UNL1        0.0029
     17 C           3.1243    0.8092    0.0000 C.3     1  UNL1        0.0551
     18 C           9.0673    1.7281    0.0000 C.2     1  UNL1       -0.0883
     19 C           2.6286   -0.0593    0.0000 C.3     1  UNL1       -0.0389
     20 H           7.9362   -1.1428    0.0000 H       1  UNL1        0.0740
     21 H           7.9252    1.0770    0.0000 H       1  UNL1        0.0390
     22 H           6.7768   -1.7207    0.0000 H       1  UNL1        0.0307
     23 H           7.5296   -1.5449    0.0000 H       1  UNL1        0.0307
     24 H           5.4505   -0.8768    0.0000 H       1  UNL1        0.0345
     25 H           7.5146    1.4751    0.0000 H       1  UNL1        0.0314
     26 H           6.7600    1.6434    0.0000 H       1  UNL1        0.0314
     27 H           5.6690    1.3416    0.0000 H       1  UNL1        0.0573
     28 H           4.0086   -0.0524    0.0000 H       1  UNL1        0.0641
     29 H           4.9607   -1.3439    0.0000 H       1  UNL1        0.0235
     30 H           5.0632   -2.2147    0.0000 H       1  UNL1        0.0235
     31 H           5.9340   -2.1122    0.0000 H       1  UNL1        0.0235
     32 H           4.7058    1.0291    0.0000 H       1  UNL1        0.0318
     33 H           4.0136    1.4242    0.0000 H       1  UNL1        0.0318
     34 H           2.5043    0.8061    0.0000 H       1  UNL1        0.0591
     35 H           9.6733    1.8590    0.0000 H       1  UNL1        0.0540
     36 H           8.6510    2.1875    0.0000 H       1  UNL1        0.0540
     37 H           3.5129   -0.9209    0.0000 H       1  UNL1        0.2102
     38 H           2.0902    0.2480    0.0000 H       1  UNL1        0.0254
     39 H           2.3213   -0.5978    0.0000 H       1  UNL1        0.0254
     40 H           3.1671   -0.3666    0.0000 H       1  UNL1        0.0254
     41 H           2.0000    1.6696    0.0000 H       1  UNL1        0.2098
@<TRIPOS>BOND
     1     1     5    1
     2     1    15    1
     3     2    13    1
     4     2    37    1
     5     3    15    2
     6     4    17    1
     7     4    41    1
     8     5     6    1
     9     5     7    1
    10     5    20    1
    11     6     9    1
    12     6    12    1
    13     6    21    1
    14     7     8    1
    15     7    22    1
    16     7    23    1
    17     8    10    1
    18     8    14    1
    19     8    24    1
    20     9    11    1
    21     9    25    1
    22     9    26    1
    23    10    11    2
    24    10    13    1
    25    11    27    1
    26    12    15    1
    27    12    18    2
    28    13    16    1
    29    13    28    1
    30    14    29    1
    31    14    30    1
    32    14    31    1
    33    16    17    1
    34    16    32    1
    35    16    33    1
    36    17    19    1
    37    17    34    1
    38    18    35    1
    39    18    36    1
    40    19    38    1
    41    19    39    1
    42    19    40    1
