@<TRIPOS>MOLECULE
IMPHY007191
 27 29 0 0 0
SMALL
GASTEIGER

@<TRIPOS>ATOM
      1 O           4.6660    2.0000    0.0000 O.2     1  UNL1       -0.2866
      2 O           4.6660   -2.0000    0.0000 O.2     1  UNL1       -0.2866
      3 C           5.5321    0.5000    0.0000 C.ar    1  UNL1        0.0333
      4 C           5.5321   -0.5000    0.0000 C.ar    1  UNL1        0.0331
      5 C           3.8000    0.5000    0.0000 C.ar    1  UNL1        0.0331
      6 C           3.8000   -0.5000    0.0000 C.ar    1  UNL1        0.0331
      7 C           4.6660    1.0000    0.0000 C.2     1  UNL1        0.1945
      8 C           4.6660   -1.0000    0.0000 C.2     1  UNL1        0.1945
      9 C           6.4260    1.0347    0.0000 C.ar    1  UNL1       -0.0473
     10 C           7.3321    0.5208    0.0000 C.ar    1  UNL1       -0.0497
     11 C           6.4260   -1.0347    0.0000 C.ar    1  UNL1       -0.0500
     12 C           7.3321   -0.5208    0.0000 C.ar    1  UNL1       -0.0581
     13 C           2.9061    1.0347    0.0000 C.ar    1  UNL1       -0.0502
     14 C           2.9061   -1.0347    0.0000 C.ar    1  UNL1       -0.0502
     15 C           2.0000    0.5208    0.0000 C.ar    1  UNL1       -0.0610
     16 C           2.0000   -0.5208    0.0000 C.ar    1  UNL1       -0.0610
     17 C           8.1962    1.0241    0.0000 C.3     1  UNL1       -0.0397
     18 H           6.4188    1.6546    0.0000 H       1  UNL1        0.0627
     19 H           6.4188   -1.6546    0.0000 H       1  UNL1        0.0625
     20 H           7.8678   -0.8329    0.0000 H       1  UNL1        0.0620
     21 H           2.9132    1.6546    0.0000 H       1  UNL1        0.0625
     22 H           2.9132   -1.6546    0.0000 H       1  UNL1        0.0625
     23 H           1.4643    0.8329    0.0000 H       1  UNL1        0.0618
     24 H           1.4643   -0.8329    0.0000 H       1  UNL1        0.0618
     25 H           8.5082    0.4884    0.0000 H       1  UNL1        0.0278
     26 H           8.7319    1.3362    0.0000 H       1  UNL1        0.0278
     27 H           7.8841    1.5599    0.0000 H       1  UNL1        0.0278
@<TRIPOS>BOND
     1     1     7    2
     2     2     8    2
     3     3     4   ar
     4     3     7    1
     5     3     9   ar
     6     4     8    1
     7     4    11   ar
     8     5     6   ar
     9     5     7    1
    10     5    13   ar
    11     6     8    1
    12     6    14   ar
    13     9    10   ar
    14     9    18    1
    15    10    12   ar
    16    10    17    1
    17    11    12   ar
    18    11    19    1
    19    12    20    1
    20    13    15   ar
    21    13    21    1
    22    14    16   ar
    23    14    22    1
    24    15    16   ar
    25    15    23    1
    26    16    24    1
    27    17    25    1
    28    17    26    1
    29    17    27    1
