@<TRIPOS>MOLECULE
IMPHY007049
 34 35 0 0 0
SMALL
GASTEIGER

@<TRIPOS>ATOM
      1 S           2.8660    1.0000    0.0000 S.2     1  UNL1       -0.0189
      2 N           4.5981    1.0000    0.0000 N.am    1  UNL1       -0.3225
      3 N           3.7320   -0.5000    0.0000 N.am    1  UNL1       -0.3225
      4 C           4.5981    2.0000    0.0000 C.3     1  UNL1        0.0359
      5 C           2.8660   -1.0000    0.0000 C.3     1  UNL1        0.0359
      6 C           5.4641    2.5000    0.0000 C.ar    1  UNL1       -0.0304
      7 C           2.8660   -2.0000    0.0000 C.ar    1  UNL1       -0.0304
      8 C           3.7320    0.5000    0.0000 C.2     1  UNL1        0.1308
      9 C           6.3301    2.0000    0.0000 C.ar    1  UNL1       -0.0571
     10 C           2.0000   -2.5000    0.0000 C.ar    1  UNL1       -0.0571
     11 C           5.4641    3.5000    0.0000 C.ar    1  UNL1       -0.0571
     12 C           3.7320   -2.5000    0.0000 C.ar    1  UNL1       -0.0571
     13 C           7.1962    2.5000    0.0000 C.ar    1  UNL1       -0.0615
     14 C           2.0000   -3.5000    0.0000 C.ar    1  UNL1       -0.0615
     15 C           6.3301    4.0000    0.0000 C.ar    1  UNL1       -0.0615
     16 C           3.7320   -3.5000    0.0000 C.ar    1  UNL1       -0.0615
     17 C           7.1962    3.5000    0.0000 C.ar    1  UNL1       -0.0617
     18 C           2.8660   -4.0000    0.0000 C.ar    1  UNL1       -0.0617
     19 H           4.3860    2.5826    0.0000 H       1  UNL1        0.0511
     20 H           3.9875    1.8923    0.0000 H       1  UNL1        0.0511
     21 H           2.6540   -0.4174    0.0000 H       1  UNL1        0.0511
     22 H           2.2554   -1.1077    0.0000 H       1  UNL1        0.0511
     23 H           5.1350    0.6900    0.0000 H       1  UNL1        0.1481
     24 H           4.2690   -0.8100    0.0000 H       1  UNL1        0.1481
     25 H           6.3301    1.3800    0.0000 H       1  UNL1        0.0621
     26 H           1.4631   -2.1900    0.0000 H       1  UNL1        0.0621
     27 H           4.9272    3.8100    0.0000 H       1  UNL1        0.0621
     28 H           4.2690   -2.1900    0.0000 H       1  UNL1        0.0621
     29 H           7.7331    2.1900    0.0000 H       1  UNL1        0.0618
     30 H           1.4631   -3.8100    0.0000 H       1  UNL1        0.0618
     31 H           6.3301    4.6200    0.0000 H       1  UNL1        0.0618
     32 H           4.2690   -3.8100    0.0000 H       1  UNL1        0.0618
     33 H           7.7331    3.8100    0.0000 H       1  UNL1        0.0618
     34 H           2.8660   -4.6200    0.0000 H       1  UNL1        0.0618
@<TRIPOS>BOND
     1     1     8    2
     2     2     4    1
     3     2     8    1
     4     2    23    1
     5     3     5    1
     6     3     8    1
     7     3    24    1
     8     4     6    1
     9     4    19    1
    10     4    20    1
    11     5     7    1
    12     5    21    1
    13     5    22    1
    14     6     9   ar
    15     6    11   ar
    16     7    10   ar
    17     7    12   ar
    18     9    13   ar
    19     9    25    1
    20    10    14   ar
    21    10    26    1
    22    11    15   ar
    23    11    27    1
    24    12    16   ar
    25    12    28    1
    26    13    17   ar
    27    13    29    1
    28    14    18   ar
    29    14    30    1
    30    15    17   ar
    31    15    31    1
    32    16    18   ar
    33    16    32    1
    34    17    33    1
    35    18    34    1
