@<TRIPOS>MOLECULE
IMPHY003568
 58 61 0 0 0
SMALL
GASTEIGER

@<TRIPOS>ATOM
      1 O           2.5369    3.6288    0.0000 O.3     1  UNL1       -0.3912
      2 O           6.8776    0.0843    0.0000 O.3     1  UNL1       -0.4912
      3 O           8.6187   -2.9429    0.0000 O.2     1  UNL1       -0.4220
      4 O           9.4768   -4.4912    0.0000 O.2     1  UNL1       -0.2452
      5 C           5.1350    2.1288    0.0000 C.3     1  UNL1       -0.0190
      6 C           5.1350    3.1288    0.0000 C.3     1  UNL1       -0.0272
      7 C           4.2690    3.6288    0.0000 C.3     1  UNL1       -0.0056
      8 C           6.0290    1.5942    0.0000 C.3     1  UNL1        0.0197
      9 C           4.2690    1.6288    0.0000 C.3     1  UNL1       -0.0443
     10 C           3.4030    3.1288    0.0000 C.3     1  UNL1        0.0606
     11 C           6.0290    3.6635    0.0000 C.3     1  UNL1       -0.0454
     12 C           3.4030    2.1288    0.0000 C.3     1  UNL1       -0.0258
     13 C           5.1350    1.1288    0.0000 C.3     1  UNL1       -0.0586
     14 C           6.9350    3.1497    0.0000 C.3     1  UNL1       -0.0313
     15 C           6.9350    2.1080    0.0000 C.2     1  UNL1       -0.0698
     16 C           3.7690    4.4949    0.0000 C.3     1  UNL1       -0.0572
     17 C           4.7690    4.4949    0.0000 C.3     1  UNL1       -0.0572
     18 C           6.0174    0.5943    0.0000 C.3     1  UNL1        0.0965
     19 C           7.7991    1.6047    0.0000 C.2     1  UNL1       -0.0991
     20 C           6.8660   -0.9157    0.0000 C.ar    1  UNL1        0.1241
     21 C           7.7262   -1.4256    0.0000 C.ar    1  UNL1        0.0231
     22 C           5.9943   -1.4056    0.0000 C.ar    1  UNL1       -0.0192
     23 C           7.7146   -2.4256    0.0000 C.ar    1  UNL1        0.1425
     24 C           5.9827   -2.4055    0.0000 C.ar    1  UNL1       -0.0476
     25 C           6.8429   -2.9155    0.0000 C.ar    1  UNL1        0.0178
     26 C           6.8148   -3.9568    0.0000 C.ar    1  UNL1       -0.0443
     27 C           8.6147   -3.9845    0.0000 C.ar    1  UNL1        0.3372
     28 C           7.7067   -4.4949    0.0000 C.ar    1  UNL1        0.0236
     29 H           5.1285    3.9788    0.0000 H       1  UNL1        0.0312
     30 H           6.5629    1.2790    0.0000 H       1  UNL1        0.0384
     31 H           3.8705    1.1539    0.0000 H       1  UNL1        0.0272
     32 H           4.6675    1.1539    0.0000 H       1  UNL1        0.0272
     33 H           3.4030    3.7488    0.0000 H       1  UNL1        0.0599
     34 H           6.4226    4.1425    0.0000 H       1  UNL1        0.0271
     35 H           5.6244    4.1333    0.0000 H       1  UNL1        0.0271
     36 H           2.7924    2.2365    0.0000 H       1  UNL1        0.0290
     37 H           3.1909    1.5462    0.0000 H       1  UNL1        0.0290
     38 H           4.5150    1.1288    0.0000 H       1  UNL1        0.0235
     39 H           5.1350    0.5089    0.0000 H       1  UNL1        0.0235
     40 H           5.7550    1.1288    0.0000 H       1  UNL1        0.0235
     41 H           7.5459    3.0436    0.0000 H       1  UNL1        0.0310
     42 H           7.1441    3.7334    0.0000 H       1  UNL1        0.0310
     43 H           5.3059    4.1849    0.0000 H       1  UNL1        0.0236
     44 H           5.0790    5.0318    0.0000 H       1  UNL1        0.0236
     45 H           4.2320    4.8049    0.0000 H       1  UNL1        0.0236
     46 H           4.3059    4.8049    0.0000 H       1  UNL1        0.0236
     47 H           3.4590    5.0318    0.0000 H       1  UNL1        0.0236
     48 H           3.2320    4.1849    0.0000 H       1  UNL1        0.0236
     49 H           5.4081    0.7090    0.0000 H       1  UNL1        0.0703
     50 H           5.7986    0.0141    0.0000 H       1  UNL1        0.0703
     51 H           2.0000    3.3188    0.0000 H       1  UNL1        0.2098
     52 H           7.7967    0.9847    0.0000 H       1  UNL1        0.0535
     53 H           8.3372    1.9126    0.0000 H       1  UNL1        0.0535
     54 H           8.2667   -1.1219    0.0000 H       1  UNL1        0.0691
     55 H           5.4610   -1.0894    0.0000 H       1  UNL1        0.0654
     56 H           5.4422   -2.7093    0.0000 H       1  UNL1        0.0626
     57 H           6.2708   -4.2543    0.0000 H       1  UNL1        0.0627
     58 H           7.6971   -5.1148    0.0000 H       1  UNL1        0.0689
@<TRIPOS>BOND
     1    10     1    1
     2     1    51    1
     3     2    18    1
     4     2    20    1
     5     3    23   ar
     6     3    27   ar
     7     4    27    2
     8     5     6    1
     9     5     8    1
    10     5     9    1
    11     5    13    1
    12     6     7    1
    13     6    11    1
    14     6    29    1
    15     7    10    1
    16     7    16    1
    17     7    17    1
    18     8    15    1
    19     8    18    1
    20     8    30    1
    21     9    12    1
    22     9    31    1
    23     9    32    1
    24    10    12    1
    25    10    33    1
    26    11    14    1
    27    11    34    1
    28    11    35    1
    29    12    36    1
    30    12    37    1
    31    13    38    1
    32    13    39    1
    33    13    40    1
    34    14    15    1
    35    14    41    1
    36    14    42    1
    37    15    19    2
    38    16    46    1
    39    16    47    1
    40    16    48    1
    41    17    43    1
    42    17    44    1
    43    17    45    1
    44    18    49    1
    45    18    50    1
    46    19    52    1
    47    19    53    1
    48    20    21   ar
    49    20    22   ar
    50    21    23   ar
    51    21    54    1
    52    22    24   ar
    53    22    55    1
    54    23    25   ar
    55    24    25   ar
    56    24    56    1
    57    25    26   ar
    58    26    28   ar
    59    26    57    1
    60    27    28   ar
    61    28    58    1
