@<TRIPOS>MOLECULE
IMPHY001301
 24 25 0 0 0
SMALL
GASTEIGER

@<TRIPOS>ATOM
      1 O           5.5321   -0.4796    0.0000 O.3     1  UNL1       -0.4551
      2 O           4.6660    2.0204    0.0000 O.3     1  UNL1       -0.3835
      3 O           2.9176   -2.0142    0.0000 O.3     1  UNL1       -0.5059
      4 O           4.6660   -1.9796    0.0000 O.2     1  UNL1       -0.2448
      5 C           4.6660    1.0204    0.0000 C.3     1  UNL1        0.1176
      6 C           5.5321    0.5204    0.0000 C.3     1  UNL1        0.1304
      7 C           3.8000    0.5204    0.0000 C.ar    1  UNL1        0.0019
      8 C           3.8000   -0.4796    0.0000 C.ar    1  UNL1        0.1060
      9 C           6.3981    1.0204    0.0000 C.3     1  UNL1       -0.0249
     10 C           4.6660   -0.9796    0.0000 C.2     1  UNL1        0.3434
     11 C           2.9061    1.0550    0.0000 C.ar    1  UNL1       -0.0550
     12 C           2.9061   -1.0143    0.0000 C.ar    1  UNL1        0.1312
     13 C           2.0000    0.5412    0.0000 C.ar    1  UNL1       -0.0579
     14 C           2.0000   -0.5004    0.0000 C.ar    1  UNL1       -0.0193
     15 H           5.2030    1.3304    0.0000 H       1  UNL1        0.0681
     16 H           6.0690    0.2104    0.0000 H       1  UNL1        0.0761
     17 H           6.7081    0.4835    0.0000 H       1  UNL1        0.0266
     18 H           6.9350    1.3304    0.0000 H       1  UNL1        0.0266
     19 H           6.0881    1.5573    0.0000 H       1  UNL1        0.0266
     20 H           2.9132    1.6750    0.0000 H       1  UNL1        0.0621
     21 H           1.4643    0.8533    0.0000 H       1  UNL1        0.0619
     22 H           5.2030    2.3304    0.0000 H       1  UNL1        0.2104
     23 H           1.4643   -0.8125    0.0000 H       1  UNL1        0.0654
     24 H           2.3843   -2.3304    0.0000 H       1  UNL1        0.2922
@<TRIPOS>BOND
     1     1     6    1
     2     1    10    1
     3     2     5    1
     4     2    22    1
     5     3    12    1
     6     3    24    1
     7     4    10    2
     8     5     6    1
     9     5     7    1
    10     5    15    1
    11     6     9    1
    12     6    16    1
    13     7     8   ar
    14     7    11   ar
    15     8    10    1
    16     8    12   ar
    17     9    17    1
    18     9    18    1
    19     9    19    1
    20    11    13   ar
    21    11    20    1
    22    12    14   ar
    23    13    14   ar
    24    13    21    1
    25    14    23    1
