@<TRIPOS>MOLECULE
IMPHY011510
 21 20 0 0 0
SMALL
GASTEIGER

@<TRIPOS>ATOM
      1 O           2.8660   -0.8100    0.0000 O.2     1  UNL1       -0.2930
      2 C           6.3301   -0.8100    0.0000 C.3     1  UNL1       -0.0373
      3 C           6.3301    0.1900    0.0000 C.2     1  UNL1       -0.0843
      4 C           7.1962   -1.3100    0.0000 C.3     1  UNL1       -0.0618
      5 C           5.4641    0.6900    0.0000 C.2     1  UNL1       -0.0656
      6 C           4.5981    0.1900    0.0000 C.2     1  UNL1       -0.0588
      7 C           3.7320    0.6900    0.0000 C.2     1  UNL1       -0.0195
      8 C           2.8660    0.1900    0.0000 C.2     1  UNL1        0.1530
      9 C           2.0000    0.6900    0.0000 C.3     1  UNL1       -0.0020
     10 H           5.7196   -0.7023    0.0000 H       1  UNL1        0.0305
     11 H           6.1181   -1.3926    0.0000 H       1  UNL1        0.0305
     12 H           6.8671    0.5000    0.0000 H       1  UNL1        0.0572
     13 H           6.8862   -1.8469    0.0000 H       1  UNL1        0.0233
     14 H           7.7331   -1.6200    0.0000 H       1  UNL1        0.0233
     15 H           7.5062   -0.7731    0.0000 H       1  UNL1        0.0233
     16 H           5.4641    1.3100    0.0000 H       1  UNL1        0.0614
     17 H           4.5981   -0.4300    0.0000 H       1  UNL1        0.0619
     18 H           3.7320    1.3100    0.0000 H       1  UNL1        0.0652
     19 H           2.3100    1.2269    0.0000 H       1  UNL1        0.0309
     20 H           1.4631    1.0000    0.0000 H       1  UNL1        0.0309
     21 H           1.6900    0.1531    0.0000 H       1  UNL1        0.0309
@<TRIPOS>BOND
     1     1     8    2
     2     2     3    1
     3     2     4    1
     4     2    10    1
     5     2    11    1
     6     3     5    2
     7     3    12    1
     8     4    13    1
     9     4    14    1
    10     4    15    1
    11     5     6    1
    12     5    16    1
    13     6     7    2
    14     6    17    1
    15     7     8    1
    16     7    18    1
    17     8     9    1
    18     9    19    1
    19     9    20    1
    20     9    21    1
