@<TRIPOS>MOLECULE
IMPHY017658
 51 53 0 0 0
SMALL
GASTEIGER

@<TRIPOS>ATOM
      1 O           5.5301   -0.7500    0.0000 O.3     1  UNL1       -0.4865
      2 O           7.3424   -3.5547    0.0000 O.2     1  UNL1       -0.4590
      3 O           3.7702   -3.7847    0.0000 O.2     1  UNL1       -0.4182
      4 O           5.5301   -4.7500    0.0000 O.3     1  UNL1       -0.4884
      5 O           2.0000   -3.7742    0.0000 O.2     1  UNL1       -0.2452
      6 C           5.5301   -1.7500    0.0000 C.ar    1  UNL1        0.1426
      7 C           6.3961   -2.2500    0.0000 C.ar    1  UNL1        0.0662
      8 C           4.6641   -2.2500    0.0000 C.ar    1  UNL1        0.0637
      9 C           6.3961   -3.2500    0.0000 C.ar    1  UNL1        0.1834
     10 C           4.6641   -3.2500    0.0000 C.ar    1  UNL1        0.1876
     11 C           5.5301   -3.7500    0.0000 C.ar    1  UNL1        0.2063
     12 C           7.2622    2.2500    0.0000 C.3     1  UNL1       -0.0285
     13 C           7.2622    1.2500    0.0000 C.2     1  UNL1       -0.0731
     14 C           8.1282    2.7500    0.0000 C.3     1  UNL1       -0.0308
     15 C           6.3961   -0.2500    0.0000 C.3     1  UNL1        0.1081
     16 C           7.3424   -1.9453    0.0000 C.ar    1  UNL1       -0.0125
     17 C           6.3961    0.7500    0.0000 C.2     1  UNL1       -0.0481
     18 C           3.7702   -1.7153    0.0000 C.ar    1  UNL1       -0.0406
     19 C           7.9260   -2.7500    0.0000 C.ar    1  UNL1        0.0934
     20 C           8.1282    0.7500    0.0000 C.3     1  UNL1       -0.0437
     21 C           8.1282    3.7500    0.0000 C.2     1  UNL1       -0.0850
     22 C           2.8641   -2.2292    0.0000 C.ar    1  UNL1        0.0237
     23 C           2.8641   -3.2708    0.0000 C.ar    1  UNL1        0.3373
     24 C           8.9942    4.2500    0.0000 C.2     1  UNL1       -0.0796
     25 C           8.9942    5.2500    0.0000 C.3     1  UNL1       -0.0440
     26 C           9.8602    3.7500    0.0000 C.3     1  UNL1       -0.0440
     27 C           6.3961   -5.2500    0.0000 C.3     1  UNL1        0.0791
     28 H           7.0501    2.8326    0.0000 H       1  UNL1        0.0313
     29 H           6.6516    2.1423    0.0000 H       1  UNL1        0.0313
     30 H           8.3402    2.1674    0.0000 H       1  UNL1        0.0310
     31 H           8.7388    2.8577    0.0000 H       1  UNL1        0.0310
     32 H           6.6082   -0.8326    0.0000 H       1  UNL1        0.0742
     33 H           7.0067   -0.1423    0.0000 H       1  UNL1        0.0742
     34 H           7.5350   -1.3560    0.0000 H       1  UNL1        0.0656
     35 H           5.8592    1.0600    0.0000 H       1  UNL1        0.0605
     36 H           3.7773   -1.0954    0.0000 H       1  UNL1        0.0628
     37 H           8.5460   -2.7500    0.0000 H       1  UNL1        0.1030
     38 H           7.5913    4.0600    0.0000 H       1  UNL1        0.0572
     39 H           7.8182    0.2131    0.0000 H       1  UNL1        0.0274
     40 H           8.6651    0.4400    0.0000 H       1  UNL1        0.0274
     41 H           8.4382    1.2869    0.0000 H       1  UNL1        0.0274
     42 H           2.3284   -1.9171    0.0000 H       1  UNL1        0.0689
     43 H           9.6142    5.2500    0.0000 H       1  UNL1        0.0274
     44 H           8.9942    5.8700    0.0000 H       1  UNL1        0.0274
     45 H           8.3742    5.2500    0.0000 H       1  UNL1        0.0274
     46 H           9.5502    3.2131    0.0000 H       1  UNL1        0.0274
     47 H          10.3972    3.4400    0.0000 H       1  UNL1        0.0274
     48 H          10.1703    4.2869    0.0000 H       1  UNL1        0.0274
     49 H           6.0862   -5.7869    0.0000 H       1  UNL1        0.0660
     50 H           6.9331   -5.5600    0.0000 H       1  UNL1        0.0660
     51 H           6.7062   -4.7131    0.0000 H       1  UNL1        0.0660
@<TRIPOS>BOND
     1     1     6    1
     2     1    15    1
     3     2     9   ar
     4     2    19   ar
     5     3    10   ar
     6     3    23   ar
     7     4    11    1
     8     4    27    1
     9     5    23    2
    10     6     7   ar
    11     6     8   ar
    12     7     9   ar
    13     7    16   ar
    14     8    10   ar
    15     8    18   ar
    16     9    11   ar
    17    10    11   ar
    18    12    13    1
    19    12    14    1
    20    12    28    1
    21    12    29    1
    22    13    17    2
    23    13    20    1
    24    14    21    1
    25    14    30    1
    26    14    31    1
    27    15    17    1
    28    15    32    1
    29    15    33    1
    30    16    19   ar
    31    16    34    1
    32    17    35    1
    33    18    22   ar
    34    18    36    1
    35    19    37    1
    36    20    39    1
    37    20    40    1
    38    20    41    1
    39    21    24    2
    40    21    38    1
    41    22    23   ar
    42    22    42    1
    43    24    25    1
    44    24    26    1
    45    25    43    1
    46    25    44    1
    47    25    45    1
    48    26    46    1
    49    26    47    1
    50    26    48    1
    51    27    49    1
    52    27    50    1
    53    27    51    1
