@<TRIPOS>MOLECULE
IMPHY002544
 48 51 0 0 0
SMALL
GASTEIGER

@<TRIPOS>ATOM
      1 O           4.6436   -3.6983    0.0000 O.3     1  UNL1       -0.3652
      2 O           3.7230   -2.5486    0.0000 O.3     1  UNL1       -0.4569
      3 O           7.0268   -4.5372    0.0000 O.3     1  UNL1       -0.3888
      4 O           4.5447    0.6168    0.0000 O.3     1  UNL1       -0.4570
      5 O           2.0000   -2.1164    0.0000 O.2     1  UNL1       -0.2453
      6 O           6.1053    1.3683    0.0000 O.2     1  UNL1       -0.2452
      7 O           4.8036    4.0712    0.0000 O.3     1  UNL1       -0.3902
      8 C           5.6146   -3.4595    0.0000 C.3     1  UNL1        0.1251
      9 C           5.4786   -2.4748    0.0000 C.3     1  UNL1        0.0371
     10 C           6.3796   -2.0409    0.0000 C.3     1  UNL1       -0.0086
     11 C           6.5929   -3.6362    0.0000 C.3     1  UNL1        0.0872
     12 C           4.5777   -2.0409    0.0000 C.3     1  UNL1        0.1199
     13 C           5.3359   -4.4199    0.0000 C.3     1  UNL1        0.0804
     14 C           7.0647   -2.7612    0.0000 C.3     1  UNL1       -0.0171
     15 C           4.3551   -1.0660    0.0000 C.3     1  UNL1        0.0651
     16 C           6.6021   -1.0660    0.0000 C.2     1  UNL1       -0.0695
     17 C           4.9786   -0.2842    0.0000 C.3     1  UNL1        0.1174
     18 C           5.9786   -0.2842    0.0000 C.3     1  UNL1        0.0063
     19 C           3.3648   -0.9795    0.0000 C.2     1  UNL1        0.0396
     20 C           2.9749   -1.8939    0.0000 C.2     1  UNL1        0.3354
     21 C           7.5770   -0.8435    0.0000 C.2     1  UNL1       -0.0991
     22 C           2.8504   -0.1219    0.0000 C.2     1  UNL1       -0.0882
     23 C           5.1081    1.4430    0.0000 C.2     1  UNL1        0.3371
     24 C           4.6742    2.3440    0.0000 C.2     1  UNL1        0.0546
     25 C           5.2375    3.1702    0.0000 C.3     1  UNL1        0.0754
     26 C           3.6770    2.4188    0.0000 C.2     1  UNL1       -0.0865
     27 H           4.7916   -2.9753    0.0000 H       1  UNL1        0.0372
     28 H           7.1993   -1.8158    0.0000 H       1  UNL1        0.0351
     29 H           7.2127   -3.6504    0.0000 H       1  UNL1        0.0623
     30 H           4.6147   -2.8901    0.0000 H       1  UNL1        0.0745
     31 H           4.9698   -4.9203    0.0000 H       1  UNL1        0.0590
     32 H           5.8922   -4.6935    0.0000 H       1  UNL1        0.0590
     33 H           7.5765   -3.1112    0.0000 H       1  UNL1        0.0297
     34 H           7.4666   -2.2891    0.0000 H       1  UNL1        0.0297
     35 H           4.0200   -0.2848    0.0000 H       1  UNL1        0.0423
     36 H           5.3085    0.2408    0.0000 H       1  UNL1        0.0744
     37 H           6.5372   -0.0152    0.0000 H       1  UNL1        0.0346
     38 H           5.8407    0.3203    0.0000 H       1  UNL1        0.0346
     39 H           7.6450   -4.5835    0.0000 H       1  UNL1        0.2099
     40 H           7.9988   -1.2980    0.0000 H       1  UNL1        0.0535
     41 H           7.7598   -0.2510    0.0000 H       1  UNL1        0.0535
     42 H           3.1514    0.4201    0.0000 H       1  UNL1        0.0540
     43 H           2.2305   -0.1322    0.0000 H       1  UNL1        0.0540
     44 H           5.6813    2.7374    0.0000 H       1  UNL1        0.0609
     45 H           5.7409    3.5322    0.0000 H       1  UNL1        0.0609
     46 H           3.4080    2.9774    0.0000 H       1  UNL1        0.0540
     47 H           3.3277    1.9065    0.0000 H       1  UNL1        0.0540
     48 H           5.1529    4.5835    0.0000 H       1  UNL1        0.2099
@<TRIPOS>BOND
     1     8     1    1
     2     1    13    1
     3     2    12    1
     4     2    20    1
     5    11     3    1
     6     3    39    1
     7    17     4    1
     8     4    23    1
     9     5    20    2
    10     6    23    2
    11     7    25    1
    12     7    48    1
    13     8     9    1
    14     8    11    1
    15     8    13    1
    16     9    10    1
    17     9    12    1
    18     9    27    1
    19    10    14    1
    20    10    16    1
    21    10    28    1
    22    11    14    1
    23    11    29    1
    24    12    15    1
    25    12    30    1
    26    13    31    1
    27    13    32    1
    28    14    33    1
    29    14    34    1
    30    15    17    1
    31    15    19    1
    32    15    35    1
    33    16    18    1
    34    16    21    2
    35    17    18    1
    36    17    36    1
    37    18    37    1
    38    18    38    1
    39    19    20    1
    40    19    22    2
    41    21    40    1
    42    21    41    1
    43    22    42    1
    44    22    43    1
    45    23    24    1
    46    24    25    1
    47    24    26    2
    48    25    44    1
    49    25    45    1
    50    26    46    1
    51    26    47    1
