@<TRIPOS>MOLECULE
IMPHY000032
 24 23 0 0 0
SMALL
GASTEIGER

@<TRIPOS>ATOM
      1 O           6.0010   -1.2500    0.0000 O.2     2  GLY2       -0.2741
      2 O           8.5991    1.2500    0.0000 O.2     1  GLY1       -0.2744
      3 O           2.5369   -0.2500    0.0000 O.3     3  GLY3       -0.4795
      4 OXT         3.4030    1.2500    0.0000 O.2     3  GLY3       -0.2492
      5 N           7.7331   -0.2500    0.0000 N.am    2  GLY2       -0.3057
      6 N           5.1350    0.2500    0.0000 N.am    3  GLY3       -0.3036
      7 N          10.3312    0.2500    0.0000 N.3     1  GLY1       -0.3225
      8 CA          6.8671    0.2500    0.0000 C.3     2  GLY2        0.0881
      9 C           6.0010   -0.2500    0.0000 C.2     2  GLY2        0.2306
     10 CA          4.2690   -0.2500    0.0000 C.3     3  GLY3        0.1089
     11 C           8.5991    0.2500    0.0000 C.2     1  GLY1        0.2271
     12 CA          9.4651   -0.2500    0.0000 C.3     1  GLY1        0.0707
     13 C           3.4030    0.2500    0.0000 C.2     3  GLY3        0.3221
     14 HA1         7.2656    0.7249    0.0000 H       2  GLY2        0.0558
     15 HA2         6.4685    0.7249    0.0000 H       2  GLY2        0.0558
     16 H           7.7331   -0.8700    0.0000 H       2  GLY2        0.1492
     17 H           5.1350    0.8700    0.0000 H       3  GLY3        0.1493
     18 HA1         3.8705   -0.7249    0.0000 H       3  GLY3        0.0577
     19 HA2         4.6675   -0.7249    0.0000 H       3  GLY3        0.0577
     20 HA1         9.0666   -0.7249    0.0000 H       1  GLY1        0.0518
     21 HA2         9.8637   -0.7249    0.0000 H       1  GLY1        0.0518
     22 H1         10.8681   -0.0600    0.0000 H       1  GLY1        0.1186
     23 H2         10.3312    0.8700    0.0000 H       1  GLY1        0.1186
     24 H           2.0000    0.0600    0.0000 H       3  GLY3        0.2951
@<TRIPOS>BOND
     1     1     9    2
     2     2    11    2
     3     3    13    1
     4     3    24    1
     5     4    13    2
     6     5     8    1
     7     5    11   am
     8     5    16    1
     9     6     9   am
    10     6    10    1
    11     6    17    1
    12     7    12    1
    13     7    22    1
    14     7    23    1
    15     8     9    1
    16     8    14    1
    17     8    15    1
    18    10    13    1
    19    10    18    1
    20    10    19    1
    21    11    12    1
    22    12    20    1
    23    12    21    1
