@<TRIPOS>MOLECULE
IMPHY005755
 45 48 0 0 0
SMALL
GASTEIGER

@<TRIPOS>ATOM
      1 O           8.0944    0.1717    0.0000 O.3     1  UNL1       -0.4850
      2 O           7.2886    2.4771    0.0000 O.3     1  UNL1       -0.3803
      3 O           9.8904    1.9972    0.0000 O.3     1  UNL1       -0.3920
      4 O           9.6517    2.8614    0.0000 O.3     1  UNL1       -0.3920
      5 O           6.4144   -3.0845    0.0000 O.3     1  UNL1       -0.5059
      6 O           4.6660   -3.0499    0.0000 O.2     1  UNL1       -0.2864
      7 N           4.6660   -0.0499    0.0000 N.ar    1  UNL1       -0.3423
      8 C           7.6651    1.1140    0.0000 C.3     1  UNL1        0.1371
      9 C           8.1584    1.9838    0.0000 C.3     1  UNL1        0.1485
     10 C           6.6361    0.9987    0.0000 C.3     1  UNL1        0.0178
     11 C           6.4260   -0.0152    0.0000 C.ar    1  UNL1        0.0222
     12 C           7.3321   -0.5291    0.0000 C.ar    1  UNL1        0.1298
     13 C           5.5321   -0.5499    0.0000 C.ar    1  UNL1        0.0633
     14 C           8.6518    2.8537    0.0000 C.3     1  UNL1        0.0786
     15 C           9.0283    1.4905    0.0000 C.3     1  UNL1        0.0786
     16 C           5.5321   -1.5499    0.0000 C.ar    1  UNL1        0.0876
     17 C           7.3321   -1.5707    0.0000 C.ar    1  UNL1        0.0227
     18 C           6.4260   -2.0846    0.0000 C.ar    1  UNL1        0.1331
     19 C           3.8000   -0.5499    0.0000 C.ar    1  UNL1        0.0529
     20 C           4.6660   -2.0499    0.0000 C.ar    1  UNL1        0.2006
     21 C           3.8000   -1.5499    0.0000 C.ar    1  UNL1        0.0459
     22 C           4.6660    0.9501    0.0000 C.3     1  UNL1        0.0124
     23 C           2.9061   -0.0152    0.0000 C.ar    1  UNL1       -0.0375
     24 C           2.9061   -2.0846    0.0000 C.ar    1  UNL1       -0.0489
     25 C           2.0000   -0.5291    0.0000 C.ar    1  UNL1       -0.0598
     26 C           2.0000   -1.5707    0.0000 C.ar    1  UNL1       -0.0610
     27 H           8.2845    1.0865    0.0000 H       1  UNL1        0.0767
     28 H           6.6322    1.6187    0.0000 H       1  UNL1        0.0352
     29 H           6.0191    1.0600    0.0000 H       1  UNL1        0.0352
     30 H           8.6334    1.0125    0.0000 H       1  UNL1        0.0588
     31 H           9.4305    1.0186    0.0000 H       1  UNL1        0.0588
     32 H           8.7547    3.4651    0.0000 H       1  UNL1        0.0588
     33 H           8.0675    3.0612    0.0000 H       1  UNL1        0.0588
     34 H           7.8678   -1.8828    0.0000 H       1  UNL1        0.0691
     35 H           7.2838    3.0971    0.0000 H       1  UNL1        0.2105
     36 H           5.2860    0.9501    0.0000 H       1  UNL1        0.0456
     37 H           4.6660    1.5701    0.0000 H       1  UNL1        0.0456
     38 H           4.0460    0.9501    0.0000 H       1  UNL1        0.0456
     39 H           2.9132    0.6047    0.0000 H       1  UNL1        0.0638
     40 H          10.4297    1.6913    0.0000 H       1  UNL1        0.2095
     41 H           9.9576    3.4007    0.0000 H       1  UNL1        0.2095
     42 H           2.9132   -2.7045    0.0000 H       1  UNL1        0.0625
     43 H           6.9478   -3.4007    0.0000 H       1  UNL1        0.2922
     44 H           1.4643   -0.2170    0.0000 H       1  UNL1        0.0618
     45 H           1.4643   -1.8828    0.0000 H       1  UNL1        0.0618
@<TRIPOS>BOND
     1     1     8    1
     2     1    12    1
     3     2     9    1
     4     2    35    1
     5     3    15    1
     6     3    40    1
     7     4    14    1
     8     4    41    1
     9     5    18    1
    10     5    43    1
    11     6    20    2
    12     7    13   ar
    13     7    19   ar
    14     7    22    1
    15     8     9    1
    16     8    10    1
    17     8    27    1
    18     9    14    1
    19     9    15    1
    20    10    11    1
    21    10    28    1
    22    10    29    1
    23    11    12   ar
    24    11    13   ar
    25    12    17   ar
    26    13    16   ar
    27    14    32    1
    28    14    33    1
    29    15    30    1
    30    15    31    1
    31    16    18   ar
    32    16    20   ar
    33    17    18   ar
    34    17    34    1
    35    19    21   ar
    36    19    23   ar
    37    20    21   ar
    38    21    24   ar
    39    22    36    1
    40    22    37    1
    41    22    38    1
    42    23    25   ar
    43    23    39    1
    44    24    26   ar
    45    24    42    1
    46    25    26   ar
    47    25    44    1
    48    26    45    1
