@<TRIPOS>MOLECULE
IMPHY013974
 24 24 0 0 0
SMALL
GASTEIGER

@<TRIPOS>ATOM
      1 O           3.0000   -0.5194    0.0000 O.3     1  UNL1       -0.4424
      2 O           4.7320   -0.5194    0.0000 O.2     1  UNL1       -0.2227
      3 N           3.8660    0.9806    0.0000 N.ar    1  UNL1       -0.2420
      4 N           4.3660    2.5194    0.0000 N.ar    1  UNL1       -0.2435
      5 C           3.0000   -1.5194    0.0000 C.3     1  UNL1        0.1070
      6 C           3.0000   -2.5194    0.0000 C.3     1  UNL1       -0.0253
      7 C           2.0000   -1.5194    0.0000 C.3     1  UNL1       -0.0253
      8 C           4.0000   -1.5194    0.0000 C.3     1  UNL1       -0.0253
      9 C           3.8660   -0.0194    0.0000 C.2     1  UNL1        0.4211
     10 C           3.0570    1.5684    0.0000 C.ar    1  UNL1        0.0351
     11 C           4.6750    1.5684    0.0000 C.ar    1  UNL1        0.1055
     12 C           3.3660    2.5194    0.0000 C.ar    1  UNL1        0.0459
     13 H           2.3800   -2.5194    0.0000 H       1  UNL1        0.0268
     14 H           3.0000   -3.1394    0.0000 H       1  UNL1        0.0268
     15 H           3.6200   -2.5194    0.0000 H       1  UNL1        0.0268
     16 H           2.0000   -0.8994    0.0000 H       1  UNL1        0.0268
     17 H           1.3800   -1.5194    0.0000 H       1  UNL1        0.0268
     18 H           2.0000   -2.1394    0.0000 H       1  UNL1        0.0268
     19 H           4.0000   -2.1394    0.0000 H       1  UNL1        0.0268
     20 H           4.6200   -1.5194    0.0000 H       1  UNL1        0.0268
     21 H           4.0000   -0.8994    0.0000 H       1  UNL1        0.0268
     22 H           2.4674    1.3768    0.0000 H       1  UNL1        0.0830
     23 H           5.2647    1.3768    0.0000 H       1  UNL1        0.1034
     24 H           3.0016    3.0210    0.0000 H       1  UNL1        0.0845
@<TRIPOS>BOND
     1     1     5    1
     2     1     9    1
     3     2     9    2
     4     3     9   am
     5     3    10   ar
     6     3    11   ar
     7     4    11   ar
     8     4    12   ar
     9     5     6    1
    10     5     7    1
    11     5     8    1
    12     6    13    1
    13     6    14    1
    14     6    15    1
    15     7    16    1
    16     7    17    1
    17     7    18    1
    18     8    19    1
    19     8    20    1
    20     8    21    1
    21    10    12   ar
    22    10    22    1
    23    11    23    1
    24    12    24    1
