@<TRIPOS>MOLECULE
IMPHY002312
 81 85 0 0 0
SMALL
GASTEIGER

@<TRIPOS>ATOM
      1 O           4.7950    0.6102    0.0000 O.3     1  UNL1       -0.3912
      2 O           2.0000   -2.9421    0.0000 O.2     1  UNL1       -0.2968
      3 O           9.9229   -0.3898    0.0000 O.2     1  UNL1       -0.2924
      4 O          11.6619    3.3963    0.0000 O.3     1  UNL1       -0.3627
      5 O           9.2713    3.2665    0.0000 O.3     1  UNL1       -0.3891
      6 C           6.5271   -1.3898    0.0000 C.3     1  UNL1       -0.0169
      7 C           5.6610   -0.8898    0.0000 C.3     1  UNL1       -0.0028
      8 C           4.7510   -1.3966    0.0000 C.3     1  UNL1       -0.0223
      9 C           7.3931   -0.8898    0.0000 C.3     1  UNL1        0.0024
     10 C           4.7430   -2.4382    0.0000 C.3     1  UNL1       -0.0234
     11 C           6.5431   -2.4313    0.0000 C.3     1  UNL1       -0.0462
     12 C           5.6451   -2.9590    0.0000 C.3     1  UNL1       -0.0483
     13 C           5.6610    0.1102    0.0000 C.3     1  UNL1        0.0628
     14 C           3.8076   -2.9879    0.0000 C.3     1  UNL1        0.0267
     15 C           7.3931    0.1102    0.0000 C.2     1  UNL1       -0.0535
     16 C           3.8242   -0.8325    0.0000 C.3     1  UNL1       -0.0403
     17 C           6.5271    0.6102    0.0000 C.3     1  UNL1       -0.0041
     18 C           7.1698   -2.1558    0.0000 C.3     1  UNL1       -0.0584
     19 C           8.3393   -1.1945    0.0000 C.3     1  UNL1        0.0198
     20 C           4.7587   -0.3966    0.0000 C.3     1  UNL1       -0.0589
     21 C           7.7352   -1.8294    0.0000 C.3     1  UNL1       -0.0549
     22 C           2.8763   -1.3605    0.0000 C.3     1  UNL1        0.0069
     23 C           8.3393    0.4150    0.0000 C.2     1  UNL1       -0.0022
     24 C           2.8680   -2.4454    0.0000 C.2     1  UNL1        0.1392
     25 C           8.9229   -0.3898    0.0000 C.2     1  UNL1        0.1603
     26 C           3.3109   -3.8559    0.0000 C.3     1  UNL1       -0.0528
     27 C           4.3109   -3.8520    0.0000 C.3     1  UNL1       -0.0528
     28 C           8.6500    1.3655    0.0000 C.3     1  UNL1       -0.0130
     29 C           9.6285    1.5717    0.0000 C.3     1  UNL1       -0.0176
     30 C           7.9821    2.1098    0.0000 C.3     1  UNL1       -0.0582
     31 C           9.9391    2.5222    0.0000 C.3     1  UNL1        0.0846
     32 C          10.9176    2.7285    0.0000 C.3     1  UNL1        0.1136
     33 C          11.8682    2.4178    0.0000 C.3     1  UNL1        0.0930
     34 C          12.8467    2.6240    0.0000 C.3     1  UNL1       -0.0335
     35 C          11.5575    1.4673    0.0000 C.3     1  UNL1       -0.0335
     36 H           6.3972   -0.4648    0.0000 H       1  UNL1        0.0337
     37 H           4.7463   -3.2882    0.0000 H       1  UNL1        0.0315
     38 H           6.7612   -3.0117    0.0000 H       1  UNL1        0.0271
     39 H           7.1523   -2.3158    0.0000 H       1  UNL1        0.0271
     40 H           5.6610    0.7302    0.0000 H       1  UNL1        0.0599
     41 H           5.2478   -3.4350    0.0000 H       1  UNL1        0.0269
     42 H           6.0460   -3.4319    0.0000 H       1  UNL1        0.0269
     43 H           4.2324   -0.3659    0.0000 H       1  UNL1        0.0275
     44 H           3.4343   -0.3505    0.0000 H       1  UNL1        0.0275
     45 H           6.9256    1.0852    0.0000 H       1  UNL1        0.0335
     46 H           6.1285    1.0852    0.0000 H       1  UNL1        0.0335
     47 H           6.6949   -2.5543    0.0000 H       1  UNL1        0.0235
     48 H           7.5684   -2.6307    0.0000 H       1  UNL1        0.0235
     49 H           7.6448   -1.7573    0.0000 H       1  UNL1        0.0235
     50 H           8.0883   -1.7614    0.0000 H       1  UNL1        0.0354
     51 H           8.8767   -1.5037    0.0000 H       1  UNL1        0.0354
     52 H           5.3787   -0.4014    0.0000 H       1  UNL1        0.0235
     53 H           4.7635    0.2234    0.0000 H       1  UNL1        0.0235
     54 H           4.1388   -0.3918    0.0000 H       1  UNL1        0.0235
     55 H           7.1526   -2.0415    0.0000 H       1  UNL1        0.0238
     56 H           7.9473   -2.4120    0.0000 H       1  UNL1        0.0238
     57 H           8.3178   -1.6173    0.0000 H       1  UNL1        0.0238
     58 H           2.6718   -0.7752    0.0000 H       1  UNL1        0.0342
     59 H           2.2647   -1.4618    0.0000 H       1  UNL1        0.0342
     60 H           3.7752   -4.1641    0.0000 H       1  UNL1        0.0239
     61 H           2.7728   -3.5479    0.0000 H       1  UNL1        0.0239
     62 H           3.0030   -4.3940    0.0000 H       1  UNL1        0.0239
     63 H           3.8490   -4.1638    0.0000 H       1  UNL1        0.0239
     64 H           4.6230   -4.3877    0.0000 H       1  UNL1        0.0239
     65 H           4.8466   -3.5399    0.0000 H       1  UNL1        0.0239
     66 H           8.0433    1.2376    0.0000 H       1  UNL1        0.0348
     67 H           4.7950    1.2302    0.0000 H       1  UNL1        0.2098
     68 H           9.6490    0.9521    0.0000 H       1  UNL1        0.0297
     69 H          10.2423    1.4844    0.0000 H       1  UNL1        0.0297
     70 H           8.4436    2.5239    0.0000 H       1  UNL1        0.0236
     71 H           7.5681    2.5713    0.0000 H       1  UNL1        0.0236
     72 H           7.5207    1.6957    0.0000 H       1  UNL1        0.0236
     73 H          10.1317    3.1116    0.0000 H       1  UNL1        0.0620
     74 H          10.5331    3.4865    0.0000 H       1  UNL1        0.0651
     75 H           9.4639    3.8559    0.0000 H       1  UNL1        0.2099
     76 H          10.9682    1.6599    0.0000 H       1  UNL1        0.0258
     77 H          12.9745    2.0173    0.0000 H       1  UNL1        0.0258
     78 H          13.4533    2.7519    0.0000 H       1  UNL1        0.0258
     79 H          11.3649    0.8780    0.0000 H       1  UNL1        0.0258
     80 H          12.1468    1.2747    0.0000 H       1  UNL1        0.0258
     81 H          12.7188    3.2307    0.0000 H       1  UNL1        0.0258
@<TRIPOS>BOND
     1    13     1    1
     2     1    67    1
     3     2    24    2
     4     3    25    2
     5     4    32    1
     6     4    33    1
     7    31     5    1
     8     5    75    1
     9     6     7    1
    10     6     9    1
    11     6    11    1
    12     6    18    1
    13     7     8    1
    14     7    13    1
    15     7    36    1
    16     8    10    1
    17     8    16    1
    18     8    20    1
    19     9    15    1
    20     9    19    1
    21     9    21    1
    22    10    12    1
    23    10    14    1
    24    10    37    1
    25    11    12    1
    26    11    38    1
    27    11    39    1
    28    12    41    1
    29    12    42    1
    30    13    17    1
    31    13    40    1
    32    14    24    1
    33    14    26    1
    34    14    27    1
    35    15    17    1
    36    15    23    2
    37    16    22    1
    38    16    43    1
    39    16    44    1
    40    17    45    1
    41    17    46    1
    42    18    47    1
    43    18    48    1
    44    18    49    1
    45    19    25    1
    46    19    50    1
    47    19    51    1
    48    20    52    1
    49    20    53    1
    50    20    54    1
    51    21    55    1
    52    21    56    1
    53    21    57    1
    54    22    24    1
    55    22    58    1
    56    22    59    1
    57    23    25    1
    58    23    28    1
    59    26    61    1
    60    26    62    1
    61    26    63    1
    62    27    60    1
    63    27    64    1
    64    27    65    1
    65    28    29    1
    66    28    30    1
    67    28    66    1
    68    29    31    1
    69    29    68    1
    70    29    69    1
    71    30    70    1
    72    30    71    1
    73    30    72    1
    74    31    32    1
    75    31    73    1
    76    32    33    1
    77    32    74    1
    78    33    34    1
    79    33    35    1
    80    34    77    1
    81    34    78    1
    82    34    81    1
    83    35    76    1
    84    35    79    1
    85    35    80    1
