@<TRIPOS>MOLECULE
IMPHY001242
 36 38 0 0 0
SMALL
GASTEIGER

@<TRIPOS>ATOM
      1 O           6.0682   -0.2704    0.0000 O.2     1  UNL1       -0.4507
      2 O           7.8003    1.7296    0.0000 O.3     1  UNL1       -0.5007
      3 O           4.3198    2.7642    0.0000 O.3     1  UNL1       -0.5058
      4 O          10.3984   -1.7704    0.0000 O.3     1  UNL1       -0.4885
      5 O           6.0682    2.7296    0.0000 O.2     1  UNL1       -0.2830
      6 O          10.3984    0.2296    0.0000 O.3     1  UNL1       -0.5032
      7 O           8.6663   -2.7704    0.0000 O.3     1  UNL1       -0.5032
      8 O           2.5381   -0.2945    0.0000 O.3     1  UNL1       -0.5065
      9 C           6.9343    0.2296    0.0000 C.ar    1  UNL1        0.1808
     10 C           5.2022    1.2296    0.0000 C.ar    1  UNL1        0.1092
     11 C           5.2022    0.2296    0.0000 C.ar    1  UNL1        0.1465
     12 C           7.8003   -0.2704    0.0000 C.ar    1  UNL1        0.0282
     13 C           6.9343    1.2296    0.0000 C.ar    1  UNL1        0.2082
     14 C           6.0682    1.7296    0.0000 C.ar    1  UNL1        0.2379
     15 C           4.3083    1.7643    0.0000 C.ar    1  UNL1        0.1348
     16 C           7.8003   -1.2704    0.0000 C.ar    1  UNL1       -0.0055
     17 C           8.6663    0.2296    0.0000 C.ar    1  UNL1       -0.0055
     18 C           4.3083   -0.3051    0.0000 C.ar    1  UNL1        0.0231
     19 C           9.5323   -0.2704    0.0000 C.ar    1  UNL1        0.1628
     20 C           8.6663   -1.7704    0.0000 C.ar    1  UNL1        0.1628
     21 C           3.4022    0.2088    0.0000 C.ar    1  UNL1        0.1239
     22 C           3.4022    1.2504    0.0000 C.ar    1  UNL1        0.0223
     23 C           9.5323   -1.2704    0.0000 C.ar    1  UNL1        0.2031
     24 C          10.3984   -2.7704    0.0000 C.3     1  UNL1        0.0791
     25 H           7.2634   -1.5804    0.0000 H       1  UNL1        0.0662
     26 H           8.6663    0.8496    0.0000 H       1  UNL1        0.0662
     27 H           4.3154   -0.9250    0.0000 H       1  UNL1        0.0691
     28 H           2.8665    1.5625    0.0000 H       1  UNL1        0.0691
     29 H           7.8003    2.3496    0.0000 H       1  UNL1        0.2924
     30 H           3.7865    3.0804    0.0000 H       1  UNL1        0.2922
     31 H          10.9353   -0.0804    0.0000 H       1  UNL1        0.2923
     32 H           8.1294   -3.0804    0.0000 H       1  UNL1        0.2923
     33 H           2.0000    0.0134    0.0000 H       1  UNL1        0.2921
     34 H           9.7784   -2.7704    0.0000 H       1  UNL1        0.0660
     35 H          10.3984   -3.3904    0.0000 H       1  UNL1        0.0660
     36 H          11.0184   -2.7704    0.0000 H       1  UNL1        0.0660
@<TRIPOS>BOND
     1     1     9   ar
     2     1    11   ar
     3     2    13    1
     4     2    29    1
     5     3    15    1
     6     3    30    1
     7     4    23    1
     8     4    24    1
     9     5    14    2
    10     6    19    1
    11     6    31    1
    12     7    20    1
    13     7    32    1
    14     8    21    1
    15     8    33    1
    16     9    12    1
    17     9    13   ar
    18    10    11   ar
    19    10    14   ar
    20    10    15   ar
    21    11    18   ar
    22    12    16   ar
    23    12    17   ar
    24    13    14   ar
    25    15    22   ar
    26    16    20   ar
    27    16    25    1
    28    17    19   ar
    29    17    26    1
    30    18    21   ar
    31    18    27    1
    32    19    23   ar
    33    20    23   ar
    34    21    22   ar
    35    22    28    1
    36    24    34    1
    37    24    35    1
    38    24    36    1
