@<TRIPOS>MOLECULE
IMPHY001976
 10 10 0 0 0
SMALL
GASTEIGER

@<TRIPOS>ATOM
      1 S           2.8660   -1.0000    0.0000 S.3     1  UNL1       -0.0604
      2 S           3.7320   -0.5000    0.0000 S.3     1  UNL1       -0.0604
      3 C           2.0000    0.5000    0.0000 C.2     1  UNL1       -0.0542
      4 C           2.8660    1.0000    0.0000 C.2     1  UNL1       -0.0542
      5 C           2.0000   -0.5000    0.0000 C.2     1  UNL1       -0.0175
      6 C           3.7320    0.5000    0.0000 C.2     1  UNL1       -0.0175
      7 H           1.4631    0.8100    0.0000 H       1  UNL1        0.0623
      8 H           2.8660    1.6200    0.0000 H       1  UNL1        0.0623
      9 H           1.4631   -0.8100    0.0000 H       1  UNL1        0.0698
     10 H           4.2690    0.8100    0.0000 H       1  UNL1        0.0698
@<TRIPOS>BOND
     1     1     2    1
     2     1     5    1
     3     2     6    1
     4     3     4    1
     5     3     5    2
     6     3     7    1
     7     4     6    2
     8     4     8    1
     9     5     9    1
    10     6    10    1
