@<TRIPOS>MOLECULE
IMPHY016296
 38 39 0 0 0
SMALL
GASTEIGER

@<TRIPOS>ATOM
      1 O           4.5986   -0.5490    0.0000 O.3     1  UNL1       -0.3520
      2 C           3.7320   -0.0490    0.0000 C.3     1  UNL1        0.1265
      3 C           3.7320   -1.0490    0.0000 C.3     1  UNL1        0.1216
      4 C           2.8660    0.4510    0.0000 C.3     1  UNL1        0.0012
      5 C           2.0000   -0.0490    0.0000 C.3     1  UNL1       -0.0411
      6 C           2.8660   -1.5490    0.0000 C.2     1  UNL1       -0.0424
      7 C           2.0000   -1.0490    0.0000 C.3     1  UNL1       -0.0286
      8 C           3.7320   -2.0490    0.0000 C.3     1  UNL1       -0.0288
      9 C           4.2320    0.8170    0.0000 C.2     1  UNL1       -0.0487
     10 C           2.0000    0.9510    0.0000 C.3     1  UNL1       -0.0568
     11 C           2.8660    1.4510    0.0000 C.3     1  UNL1       -0.0568
     12 C           2.8660   -2.5490    0.0000 C.2     1  UNL1       -0.0967
     13 C           5.2320    0.8170    0.0000 C.2     1  UNL1       -0.0605
     14 C           5.7320    1.6830    0.0000 C.2     1  UNL1       -0.0577
     15 C           6.7320    1.6830    0.0000 C.3     1  UNL1       -0.0403
     16 C           5.2320    2.5490    0.0000 C.2     1  UNL1       -0.0958
     17 H           1.7880    0.5336    0.0000 H       1  UNL1        0.0274
     18 H           1.3894   -0.1567    0.0000 H       1  UNL1        0.0274
     19 H           1.3894   -0.9414    0.0000 H       1  UNL1        0.0311
     20 H           1.7880   -1.6316    0.0000 H       1  UNL1        0.0311
     21 H           3.1120   -2.0490    0.0000 H       1  UNL1        0.0262
     22 H           3.7320   -2.6690    0.0000 H       1  UNL1        0.0262
     23 H           4.3520   -2.0490    0.0000 H       1  UNL1        0.0262
     24 H           3.9220    1.3539    0.0000 H       1  UNL1        0.0602
     25 H           2.3100    1.4879    0.0000 H       1  UNL1        0.0236
     26 H           1.4631    1.2610    0.0000 H       1  UNL1        0.0236
     27 H           1.6900    0.4140    0.0000 H       1  UNL1        0.0236
     28 H           3.4860    1.4510    0.0000 H       1  UNL1        0.0236
     29 H           2.8660    2.0710    0.0000 H       1  UNL1        0.0236
     30 H           2.2460    1.4510    0.0000 H       1  UNL1        0.0236
     31 H           2.3291   -2.8590    0.0000 H       1  UNL1        0.0535
     32 H           3.4030   -2.8590    0.0000 H       1  UNL1        0.0535
     33 H           5.5420    0.2801    0.0000 H       1  UNL1        0.0618
     34 H           6.7320    1.0630    0.0000 H       1  UNL1        0.0277
     35 H           7.3520    1.6830    0.0000 H       1  UNL1        0.0277
     36 H           6.7320    2.3030    0.0000 H       1  UNL1        0.0277
     37 H           5.5420    3.0860    0.0000 H       1  UNL1        0.0537
     38 H           4.6120    2.5490    0.0000 H       1  UNL1        0.0537
@<TRIPOS>BOND
     1     1     2    1
     2     1     3    1
     3     2     3    1
     4     2     4    1
     5     2     9    1
     6     3     6    1
     7     3     8    1
     8     4     5    1
     9     4    10    1
    10     4    11    1
    11     5     7    1
    12     5    17    1
    13     5    18    1
    14     6     7    1
    15     6    12    2
    16     7    19    1
    17     7    20    1
    18     8    21    1
    19     8    22    1
    20     8    23    1
    21     9    13    2
    22     9    24    1
    23    10    25    1
    24    10    26    1
    25    10    27    1
    26    11    28    1
    27    11    29    1
    28    11    30    1
    29    12    31    1
    30    12    32    1
    31    13    14    1
    32    13    33    1
    33    14    15    1
    34    14    16    2
    35    15    34    1
    36    15    35    1
    37    15    36    1
    38    16    37    1
    39    16    38    1
