@<TRIPOS>MOLECULE
IMPHY016872
 32 32 0 0 0
SMALL
GASTEIGER

@<TRIPOS>ATOM
      1 O           2.0000   -0.2321    0.0000 O.2     1  UNL1       -0.2739
      2 O           5.4641   -0.2321    0.0000 O.2     1  UNL1       -0.2739
      3 O           3.7320   -3.2320    0.0000 O.2     1  UNL1       -0.2520
      4 N           2.8660   -1.7320    0.0000 N.am    1  UNL1       -0.2387
      5 N           4.5981   -1.7320    0.0000 N.am    1  UNL1       -0.2387
      6 C           3.7320   -0.2321    0.0000 C.3     1  UNL1        0.1438
      7 C           3.2320    0.6340    0.0000 C.3     1  UNL1       -0.0296
      8 C           4.2320    0.6340    0.0000 C.2     1  UNL1       -0.0530
      9 C           2.8660   -0.7321    0.0000 C.2     1  UNL1        0.2395
     10 C           4.5981   -0.7321    0.0000 C.2     1  UNL1        0.2395
     11 C           2.2320    0.6340    0.0000 C.3     1  UNL1       -0.0636
     12 C           3.7320    1.5000    0.0000 C.2     1  UNL1       -0.0838
     13 C           5.2320    0.6340    0.0000 C.3     1  UNL1       -0.0423
     14 C           3.7320   -2.2320    0.0000 C.2     1  UNL1        0.3122
     15 C           4.2320    2.3660    0.0000 C.3     1  UNL1       -0.0373
     16 C           3.7320    3.2320    0.0000 C.3     1  UNL1       -0.0618
     17 H           3.8147    0.8460    0.0000 H       1  UNL1        0.0280
     18 H           3.1244    1.2446    0.0000 H       1  UNL1        0.0280
     19 H           2.2320    1.2540    0.0000 H       1  UNL1        0.0230
     20 H           1.6120    0.6340    0.0000 H       1  UNL1        0.0230
     21 H           2.2320    0.0140    0.0000 H       1  UNL1        0.0230
     22 H           3.1120    1.5000    0.0000 H       1  UNL1        0.0572
     23 H           5.2320    0.0140    0.0000 H       1  UNL1        0.0275
     24 H           5.8520    0.6340    0.0000 H       1  UNL1        0.0275
     25 H           5.2320    1.2540    0.0000 H       1  UNL1        0.0275
     26 H           2.3291   -2.0420    0.0000 H       1  UNL1        0.1591
     27 H           5.1350   -2.0420    0.0000 H       1  UNL1        0.1591
     28 H           4.7070    1.9675    0.0000 H       1  UNL1        0.0305
     29 H           4.7070    2.7646    0.0000 H       1  UNL1        0.0305
     30 H           4.2690    3.5420    0.0000 H       1  UNL1        0.0233
     31 H           3.4220    3.7690    0.0000 H       1  UNL1        0.0233
     32 H           3.1951    2.9220    0.0000 H       1  UNL1        0.0233
@<TRIPOS>BOND
     1     1     9    2
     2     2    10    2
     3     3    14    2
     4     4     9   am
     5     4    14   am
     6     4    26    1
     7     5    10   am
     8     5    14   am
     9     5    27    1
    10     6     7    1
    11     6     8    1
    12     6     9    1
    13     6    10    1
    14     7    11    1
    15     7    17    1
    16     7    18    1
    17     8    12    2
    18     8    13    1
    19    11    19    1
    20    11    20    1
    21    11    21    1
    22    12    15    1
    23    12    22    1
    24    13    23    1
    25    13    24    1
    26    13    25    1
    27    15    16    1
    28    15    28    1
    29    15    29    1
    30    16    30    1
    31    16    31    1
    32    16    32    1
