@<TRIPOS>MOLECULE
IMPHY014677
 35 37 0 0 0
SMALL
GASTEIGER

@<TRIPOS>ATOM
      1 O           5.5321   -0.7500    0.0000 O.2     1  UNL1       -0.4036
      2 O           4.6660   -2.2500    0.0000 O.2     1  UNL1       -0.2444
      3 O          12.4603    2.2500    0.0000 O.3     1  UNL1       -0.5068
      4 N           4.6660    0.7500    0.0000 N.ar    1  UNL1       -0.2122
      5 C           3.8000   -0.7500    0.0000 C.ar    1  UNL1        0.0848
      6 C           3.8000    0.2500    0.0000 C.ar    1  UNL1        0.0817
      7 C           2.9061   -1.2847    0.0000 C.ar    1  UNL1       -0.0457
      8 C           2.9061    0.7847    0.0000 C.ar    1  UNL1       -0.0354
      9 C           5.5321    0.2500    0.0000 C.ar    1  UNL1        0.2246
     10 C           4.6660   -1.2500    0.0000 C.ar    1  UNL1        0.3477
     11 C           9.8622    0.7500    0.0000 C.ar    1  UNL1       -0.0248
     12 C           2.0000   -0.7708    0.0000 C.ar    1  UNL1       -0.0609
     13 C           2.0000    0.2708    0.0000 C.ar    1  UNL1       -0.0597
     14 C           6.3981    0.7500    0.0000 C.2     1  UNL1        0.0005
     15 C           8.9962    0.2500    0.0000 C.2     1  UNL1       -0.0546
     16 C          10.7282    0.2500    0.0000 C.ar    1  UNL1       -0.0511
     17 C           9.8622    1.7500    0.0000 C.ar    1  UNL1       -0.0511
     18 C           7.2641    0.2500    0.0000 C.2     1  UNL1       -0.0567
     19 C           8.1301    0.7500    0.0000 C.2     1  UNL1       -0.0610
     20 C          11.5942    0.7500    0.0000 C.ar    1  UNL1       -0.0196
     21 C          10.7282    2.2500    0.0000 C.ar    1  UNL1       -0.0196
     22 C          11.5942    1.7500    0.0000 C.ar    1  UNL1        0.1169
     23 H           2.9132   -1.9046    0.0000 H       1  UNL1        0.0626
     24 H           2.9132    1.4046    0.0000 H       1  UNL1        0.0639
     25 H           1.4643   -1.0829    0.0000 H       1  UNL1        0.0618
     26 H           1.4643    0.5829    0.0000 H       1  UNL1        0.0618
     27 H           6.3981    1.3700    0.0000 H       1  UNL1        0.0671
     28 H           8.9962   -0.3700    0.0000 H       1  UNL1        0.0623
     29 H          10.7282   -0.3700    0.0000 H       1  UNL1        0.0625
     30 H           9.3252    2.0600    0.0000 H       1  UNL1        0.0625
     31 H           7.2641   -0.3700    0.0000 H       1  UNL1        0.0619
     32 H           8.1301    1.3700    0.0000 H       1  UNL1        0.0618
     33 H          12.1312    0.4400    0.0000 H       1  UNL1        0.0654
     34 H          10.7282    2.8700    0.0000 H       1  UNL1        0.0654
     35 H          12.9972    1.9400    0.0000 H       1  UNL1        0.2921
@<TRIPOS>BOND
     1     1     9   ar
     2     1    10   ar
     3     2    10    2
     4     3    22    1
     5     3    35    1
     6     4     6   ar
     7     4     9   ar
     8     5     6   ar
     9     5     7   ar
    10     5    10   ar
    11     6     8   ar
    12     7    12   ar
    13     7    23    1
    14     8    13   ar
    15     8    24    1
    16     9    14    1
    17    11    15    1
    18    11    16   ar
    19    11    17   ar
    20    12    13   ar
    21    12    25    1
    22    13    26    1
    23    14    18    2
    24    14    27    1
    25    15    19    2
    26    15    28    1
    27    16    20   ar
    28    16    29    1
    29    17    21   ar
    30    17    30    1
    31    18    19    1
    32    18    31    1
    33    19    32    1
    34    20    22   ar
    35    20    33    1
    36    21    22   ar
    37    21    34    1
