@<TRIPOS>MOLECULE
IMPHY011247
 78 82 0 0 0
SMALL
GASTEIGER

@<TRIPOS>ATOM
      1 O           7.7331   -1.8813    0.0000 O.3     1  UNL1       -0.3313
      2 O           6.0010   -2.8813    0.0000 O.3     1  UNL1       -0.3461
      3 O           4.2690   -2.8813    0.0000 O.3     1  UNL1       -0.3431
      4 O           6.0010    0.1187    0.0000 O.3     1  UNL1       -0.3865
      5 O           7.7331    1.1187    0.0000 O.3     1  UNL1       -0.3864
      6 O           9.4651   -1.8813    0.0000 O.3     1  UNL1       -0.4569
      7 O           9.4651    0.1187    0.0000 O.3     1  UNL1       -0.3829
      8 O           6.0010   -4.8813    0.0000 O.3     1  UNL1       -0.3841
      9 O           4.2690   -5.8813    0.0000 O.3     1  UNL1       -0.3864
     10 O           2.5369   -4.8813    0.0000 O.3     1  UNL1       -0.3866
     11 O          11.1972   -2.8813    0.0000 O.3     1  UNL1       -0.4885
     12 O          11.1811    1.1602    0.0000 O.2     1  UNL1       -0.4544
     13 O          12.9292   -1.8813    0.0000 O.3     1  UNL1       -0.5027
     14 O          13.8334   -0.3844    0.0000 O.2     1  UNL1       -0.2869
     15 O          12.0637    5.6880    0.0000 O.3     1  UNL1       -0.4951
     16 C           6.8671   -1.3813    0.0000 C.3     1  UNL1        0.1144
     17 C           6.8671   -0.3813    0.0000 C.3     1  UNL1        0.1120
     18 C           7.7331    0.1187    0.0000 C.3     1  UNL1        0.1152
     19 C           8.5991   -0.3813    0.0000 C.3     1  UNL1        0.1454
     20 C           5.1350   -4.3813    0.0000 C.3     1  UNL1        0.1341
     21 C           5.1350   -3.3813    0.0000 C.3     1  UNL1        0.1879
     22 C           4.2690   -4.8813    0.0000 C.3     1  UNL1        0.1140
     23 C           3.4030   -4.3813    0.0000 C.3     1  UNL1        0.1095
     24 C           8.5991   -1.3813    0.0000 C.3     1  UNL1        0.2310
     25 C           6.0010   -1.8813    0.0000 C.3     1  UNL1        0.0796
     26 C           3.4030   -3.3813    0.0000 C.3     1  UNL1        0.0873
     27 C           2.5369   -2.8813    0.0000 C.3     1  UNL1       -0.0361
     28 C          10.3312   -1.3813    0.0000 C.ar    1  UNL1        0.1726
     29 C          11.1972   -1.8813    0.0000 C.ar    1  UNL1        0.2044
     30 C          10.3312   -0.3813    0.0000 C.ar    1  UNL1        0.0271
     31 C          11.1972    0.1187    0.0000 C.ar    1  UNL1        0.1465
     32 C          12.0632   -1.3813    0.0000 C.ar    1  UNL1        0.1768
     33 C          12.0632   -0.3813    0.0000 C.ar    1  UNL1        0.1091
     34 C          12.9732    0.1256    0.0000 C.ar    1  UNL1        0.1967
     35 C          12.0792    1.6880    0.0000 C.ar    1  UNL1        0.1392
     36 C          12.9812    1.1672    0.0000 C.ar    1  UNL1        0.0288
     37 C          12.0632   -3.3813    0.0000 C.3     1  UNL1        0.0791
     38 C          12.0753    2.6880    0.0000 C.ar    1  UNL1        0.0176
     39 C          11.2074    3.1846    0.0000 C.ar    1  UNL1       -0.0476
     40 C          12.9394    3.1913    0.0000 C.ar    1  UNL1       -0.0476
     41 C          11.2035    4.1846    0.0000 C.ar    1  UNL1       -0.0193
     42 C          12.9356    4.1913    0.0000 C.ar    1  UNL1       -0.0193
     43 C          12.0676    4.6880    0.0000 C.ar    1  UNL1        0.1201
     44 C          12.9278    6.1913    0.0000 C.3     1  UNL1        0.0788
     45 H           6.8671   -2.0013    0.0000 H       1  UNL1        0.0647
     46 H           6.3301   -0.6913    0.0000 H       1  UNL1        0.0647
     47 H           7.1962    0.4287    0.0000 H       1  UNL1        0.0648
     48 H           8.5991    0.2387    0.0000 H       1  UNL1        0.0683
     49 H           5.1350   -5.0013    0.0000 H       1  UNL1        0.0671
     50 H           5.1350   -2.7613    0.0000 H       1  UNL1        0.0937
     51 H           3.7320   -5.1913    0.0000 H       1  UNL1        0.0648
     52 H           2.8660   -4.0713    0.0000 H       1  UNL1        0.0646
     53 H           8.5991   -2.0013    0.0000 H       1  UNL1        0.1084
     54 H           5.7890   -1.2987    0.0000 H       1  UNL1        0.0587
     55 H           5.3905   -1.9889    0.0000 H       1  UNL1        0.0587
     56 H           3.4030   -2.7613    0.0000 H       1  UNL1        0.0621
     57 H           2.8469   -2.3444    0.0000 H       1  UNL1        0.0255
     58 H           2.0000   -2.5713    0.0000 H       1  UNL1        0.0255
     59 H           2.2269   -3.4182    0.0000 H       1  UNL1        0.0255
     60 H           5.4641   -0.1913    0.0000 H       1  UNL1        0.2100
     61 H           7.1962    1.4287    0.0000 H       1  UNL1        0.2100
     62 H           9.4651    0.7387    0.0000 H       1  UNL1        0.2102
     63 H           6.5380   -4.5713    0.0000 H       1  UNL1        0.2101
     64 H           3.7320   -6.1913    0.0000 H       1  UNL1        0.2100
     65 H           2.0000   -4.5713    0.0000 H       1  UNL1        0.2100
     66 H           9.7942   -0.0713    0.0000 H       1  UNL1        0.0692
     67 H          13.5194    1.4751    0.0000 H       1  UNL1        0.0693
     68 H          12.9292   -2.5013    0.0000 H       1  UNL1        0.2923
     69 H          11.7532   -3.9182    0.0000 H       1  UNL1        0.0660
     70 H          12.6002   -3.6913    0.0000 H       1  UNL1        0.0660
     71 H          12.3732   -2.8444    0.0000 H       1  UNL1        0.0660
     72 H          10.6716    2.8726    0.0000 H       1  UNL1        0.0626
     73 H          13.4775    2.8834    0.0000 H       1  UNL1        0.0626
     74 H          10.6654    4.4925    0.0000 H       1  UNL1        0.0654
     75 H          13.4713    4.5034    0.0000 H       1  UNL1        0.0654
     76 H          13.2399    5.6556    0.0000 H       1  UNL1        0.0660
     77 H          13.4636    6.5034    0.0000 H       1  UNL1        0.0660
     78 H          12.6158    6.7270    0.0000 H       1  UNL1        0.0660
@<TRIPOS>BOND
     1     1    16    1
     2     1    24    1
     3    21     2    1
     4     2    25    1
     5     3    21    1
     6     3    26    1
     7    17     4    1
     8     4    60    1
     9    18     5    1
    10     5    61    1
    11    24     6    1
    12     6    28    1
    13    19     7    1
    14     7    62    1
    15    20     8    1
    16     8    63    1
    17    22     9    1
    18     9    64    1
    19    23    10    1
    20    10    65    1
    21    11    29    1
    22    11    37    1
    23    12    31   ar
    24    12    35   ar
    25    13    32    1
    26    13    68    1
    27    14    34    2
    28    15    43    1
    29    15    44    1
    30    16    17    1
    31    16    25    1
    32    16    45    1
    33    17    18    1
    34    17    46    1
    35    18    19    1
    36    18    47    1
    37    19    24    1
    38    19    48    1
    39    20    21    1
    40    20    22    1
    41    20    49    1
    42    21    50    1
    43    22    23    1
    44    22    51    1
    45    23    26    1
    46    23    52    1
    47    24    53    1
    48    25    54    1
    49    25    55    1
    50    26    27    1
    51    26    56    1
    52    27    57    1
    53    27    58    1
    54    27    59    1
    55    28    29   ar
    56    28    30   ar
    57    29    32   ar
    58    30    31   ar
    59    30    66    1
    60    31    33   ar
    61    32    33   ar
    62    33    34   ar
    63    34    36   ar
    64    35    36   ar
    65    35    38    1
    66    36    67    1
    67    37    69    1
    68    37    70    1
    69    37    71    1
    70    38    39   ar
    71    38    40   ar
    72    39    41   ar
    73    39    72    1
    74    40    42   ar
    75    40    73    1
    76    41    43   ar
    77    41    74    1
    78    42    43   ar
    79    42    75    1
    80    44    76    1
    81    44    77    1
    82    44    78    1
