@<TRIPOS>MOLECULE
IMPHY014457
 37 38 0 0 0
SMALL
GASTEIGER

@<TRIPOS>ATOM
      1 O           8.0901   -1.7847    0.0000 O.2     1  UNL1       -0.4569
      2 O           6.3301    1.2500    0.0000 O.3     1  UNL1       -0.5055
      3 O           4.5981   -1.7500    0.0000 O.3     1  UNL1       -0.5062
      4 O           8.0785    1.2846    0.0000 O.2     1  UNL1       -0.2869
      5 O          10.7282   -1.2775    0.0000 O.3     1  UNL1       -0.3873
      6 O           2.0000    1.7500    0.0000 O.3     1  UNL1       -0.3907
      7 C           5.4641   -0.2500    0.0000 C.ar    1  UNL1        0.0400
      8 C           7.1962   -0.2500    0.0000 C.ar    1  UNL1        0.1057
      9 C           4.5981    0.2500    0.0000 C.3     1  UNL1       -0.0022
     10 C           6.3301    0.2500    0.0000 C.ar    1  UNL1        0.1381
     11 C           7.1962   -1.2500    0.0000 C.ar    1  UNL1        0.1459
     12 C           5.4641   -1.2500    0.0000 C.ar    1  UNL1        0.1273
     13 C           6.3301   -1.7500    0.0000 C.ar    1  UNL1        0.0234
     14 C           8.0901    0.2847    0.0000 C.ar    1  UNL1        0.1964
     15 C           3.7320   -0.2500    0.0000 C.2     1  UNL1       -0.0783
     16 C           8.9962   -1.2708    0.0000 C.ar    1  UNL1        0.1345
     17 C           8.9962   -0.2292    0.0000 C.ar    1  UNL1        0.0263
     18 C           2.8660    0.2500    0.0000 C.2     1  UNL1       -0.0512
     19 C           9.8602   -1.7742    0.0000 C.3     1  UNL1        0.1020
     20 C           2.8660    1.2500    0.0000 C.3     1  UNL1        0.0651
     21 C           2.0000   -0.2500    0.0000 C.3     1  UNL1       -0.0416
     22 H           4.9966    0.7249    0.0000 H       1  UNL1        0.0358
     23 H           4.1996    0.7249    0.0000 H       1  UNL1        0.0358
     24 H           6.3301   -2.3700    0.0000 H       1  UNL1        0.0691
     25 H           3.7320   -0.8700    0.0000 H       1  UNL1        0.0576
     26 H           9.5319    0.0829    0.0000 H       1  UNL1        0.0690
     27 H           9.4599   -2.2476    0.0000 H       1  UNL1        0.0638
     28 H          10.2569   -2.2506    0.0000 H       1  UNL1        0.0638
     29 H           3.4766    1.1423    0.0000 H       1  UNL1        0.0604
     30 H           3.0781    1.8326    0.0000 H       1  UNL1        0.0604
     31 H           5.7932    1.5600    0.0000 H       1  UNL1        0.2922
     32 H           1.6900    0.2869    0.0000 H       1  UNL1        0.0275
     33 H           1.4631   -0.5600    0.0000 H       1  UNL1        0.0275
     34 H           2.3100   -0.7869    0.0000 H       1  UNL1        0.0275
     35 H           4.5981   -2.3700    0.0000 H       1  UNL1        0.2921
     36 H          11.2639   -1.5896    0.0000 H       1  UNL1        0.2100
     37 H           2.0000    2.3700    0.0000 H       1  UNL1        0.2098
@<TRIPOS>BOND
     1     1    11   ar
     2     1    16   ar
     3     2    10    1
     4     2    31    1
     5     3    12    1
     6     3    35    1
     7     4    14    2
     8     5    19    1
     9     5    36    1
    10     6    20    1
    11     6    37    1
    12     7     9    1
    13     7    10   ar
    14     7    12   ar
    15     8    10   ar
    16     8    11   ar
    17     8    14   ar
    18     9    15    1
    19     9    22    1
    20     9    23    1
    21    11    13   ar
    22    12    13   ar
    23    13    24    1
    24    14    17   ar
    25    15    18    2
    26    15    25    1
    27    16    17   ar
    28    16    19    1
    29    17    26    1
    30    18    20    1
    31    18    21    1
    32    19    27    1
    33    19    28    1
    34    20    29    1
    35    20    30    1
    36    21    32    1
    37    21    33    1
    38    21    34    1
