@<TRIPOS>MOLECULE
IMPHY017181
 18 18 0 0 0
SMALL
GASTEIGER

@<TRIPOS>ATOM
      1 O           3.7601   -0.6588    0.0000 O.3     1  UNL1       -0.4586
      2 O           2.0000   -0.3800    0.0000 O.2     1  UNL1       -0.2508
      3 C           4.5691   -0.0710    0.0000 C.3     1  UNL1        0.1085
      4 C           4.2601    0.8800    0.0000 C.3     1  UNL1       -0.0033
      5 C           3.2601    0.8800    0.0000 C.3     1  UNL1        0.0485
      6 C           5.1569   -0.8800    0.0000 C.3     1  UNL1       -0.0251
      7 C           5.5202    0.2380    0.0000 C.3     1  UNL1       -0.0251
      8 C           2.9511   -0.0710    0.0000 C.2     1  UNL1        0.3077
      9 H           4.8665    1.0089    0.0000 H       1  UNL1        0.0309
     10 H           4.1953    1.4966    0.0000 H       1  UNL1        0.0309
     11 H           3.3249    1.4966    0.0000 H       1  UNL1        0.0379
     12 H           2.6536    1.0089    0.0000 H       1  UNL1        0.0379
     13 H           4.6553   -1.2445    0.0000 H       1  UNL1        0.0268
     14 H           5.5213   -1.3816    0.0000 H       1  UNL1        0.0268
     15 H           5.6585   -0.5156    0.0000 H       1  UNL1        0.0268
     16 H           5.7117   -0.3517    0.0000 H       1  UNL1        0.0268
     17 H           6.1098    0.4296    0.0000 H       1  UNL1        0.0268
     18 H           5.3286    0.8277    0.0000 H       1  UNL1        0.0268
@<TRIPOS>BOND
     1     1     3    1
     2     1     8    1
     3     2     8    2
     4     3     4    1
     5     3     6    1
     6     3     7    1
     7     4     5    1
     8     4     9    1
     9     4    10    1
    10     5     8    1
    11     5    11    1
    12     5    12    1
    13     6    13    1
    14     6    14    1
    15     6    15    1
    16     7    16    1
    17     7    17    1
    18     7    18    1
