@<TRIPOS>MOLECULE
IMPHY010349
 27 26 0 0 0
SMALL
GASTEIGER

@<TRIPOS>ATOM
      1 S           4.5981   -0.0600    0.0000 S.O     1  UNL1        0.0297
      2 S           8.0622   -0.0600    0.0000 S.3     1  UNL1       -0.0649
      3 S           8.9282    0.4400    0.0000 S.3     1  UNL1       -0.0846
      4 O           4.5981   -1.0600    0.0000 O.2     1  UNL1       -0.2566
      5 C           5.4641    0.4400    0.0000 C.3     1  UNL1        0.0425
      6 C           3.7320    0.4400    0.0000 C.3     1  UNL1        0.0415
      7 C           6.3301   -0.0600    0.0000 C.2     1  UNL1       -0.0648
      8 C           2.8660   -0.0600    0.0000 C.2     1  UNL1       -0.0790
      9 C           7.1962    0.4400    0.0000 C.2     1  UNL1       -0.0209
     10 C           2.0000    0.4400    0.0000 C.2     1  UNL1       -0.1018
     11 C           9.7942   -0.0600    0.0000 C.3     1  UNL1        0.0221
     12 C          10.6603    0.4400    0.0000 C.2     1  UNL1       -0.0805
     13 C          11.5263   -0.0600    0.0000 C.2     1  UNL1       -0.1018
     14 H           5.8626    0.9149    0.0000 H       1  UNL1        0.0444
     15 H           5.0656    0.9149    0.0000 H       1  UNL1        0.0444
     16 H           4.1306    0.9149    0.0000 H       1  UNL1        0.0444
     17 H           3.3335    0.9149    0.0000 H       1  UNL1        0.0444
     18 H           6.3301   -0.6800    0.0000 H       1  UNL1        0.0586
     19 H           2.8660   -0.6800    0.0000 H       1  UNL1        0.0575
     20 H           7.1962    1.0600    0.0000 H       1  UNL1        0.0695
     21 H           9.3957   -0.5349    0.0000 H       1  UNL1        0.0427
     22 H          10.1928   -0.5349    0.0000 H       1  UNL1        0.0427
     23 H           2.0000    1.0600    0.0000 H       1  UNL1        0.0532
     24 H           1.4631    0.1300    0.0000 H       1  UNL1        0.0532
     25 H          10.6603    1.0600    0.0000 H       1  UNL1        0.0575
     26 H          11.5263   -0.6800    0.0000 H       1  UNL1        0.0532
     27 H          12.0632    0.2500    0.0000 H       1  UNL1        0.0532
@<TRIPOS>BOND
     1     1     4    2
     2     1     5    1
     3     1     6    1
     4     2     3    1
     5     2     9    1
     6     3    11    1
     7     5     7    1
     8     5    14    1
     9     5    15    1
    10     6     8    1
    11     6    16    1
    12     6    17    1
    13     7     9    2
    14     7    18    1
    15     8    10    2
    16     8    19    1
    17     9    20    1
    18    10    23    1
    19    10    24    1
    20    11    12    1
    21    11    21    1
    22    11    22    1
    23    12    13    2
    24    12    25    1
    25    13    26    1
    26    13    27    1
