@<TRIPOS>MOLECULE
IMPHY002415
 95 101 0 0 0
SMALL
GASTEIGER

@<TRIPOS>ATOM
      1 O           6.3998   -1.1104    0.0000 O.3     1  UNL1       -0.4573
      2 O           7.9173   -2.2793    0.0000 O.3     1  UNL1       -0.3790
      3 O           9.7400    1.4825    0.0000 O.3     1  UNL1       -0.3791
      4 O           6.0231    1.0567    0.0000 O.3     1  UNL1       -0.4548
      5 O           7.6148    2.7944    0.0000 O.3     1  UNL1       -0.3823
      6 O           5.6223    1.9405    0.0000 O.3     1  UNL1       -0.3767
      7 O          10.6060   -2.7526    0.0000 O.3     1  UNL1       -0.3824
      8 O           4.7156   -0.7062    0.0000 O.2     1  UNL1       -0.2511
      9 O           5.2872   -0.5112    0.0000 O.2     1  UNL1       -0.2456
     10 N          10.9353   -0.3465    0.0000 N.3     1  UNL1       -0.2979
     11 C           8.9886    0.0487    0.0000 C.3     1  UNL1        0.0221
     12 C           8.9886   -0.8188    0.0000 C.3     1  UNL1        0.0043
     13 C           8.3103    0.5897    0.0000 C.3     1  UNL1       -0.0185
     14 C           9.9906   -0.0573    0.0000 C.3     1  UNL1        0.0279
     15 C           7.4645   -1.1667    0.0000 C.3     1  UNL1        0.0421
     16 C           7.4645    0.3966    0.0000 C.3     1  UNL1        0.0429
     17 C           7.0881   -0.3851    0.0000 C.3     1  UNL1        0.1291
     18 C           8.3103   -1.3598    0.0000 C.3     1  UNL1        0.0703
     19 C           9.7400   -1.2526    0.0000 C.3     1  UNL1        0.0127
     20 C           9.7400    0.4825    0.0000 C.3     1  UNL1        0.0660
     21 C           8.3881    1.4538    0.0000 C.3     1  UNL1       -0.0140
     22 C           7.5904    1.7947    0.0000 C.3     1  UNL1        0.1294
     23 C           7.0195    1.1414    0.0000 C.3     1  UNL1        0.1410
     24 C           6.4432   -0.1151    0.0000 C.3     1  UNL1        0.0171
     25 C          10.9353   -1.0984    0.0000 C.3     1  UNL1        0.0073
     26 C          10.4913   -0.8188    0.0000 C.3     1  UNL1       -0.0414
     27 C           6.4432    1.3694    0.0000 C.3     1  UNL1        0.0941
     28 C          10.4913    0.0487    0.0000 C.3     1  UNL1       -0.0254
     29 C           9.7400   -2.2526    0.0000 C.3     1  UNL1        0.0544
     30 C          11.7393    0.2482    0.0000 C.3     1  UNL1       -0.0036
     31 C           5.4409   -1.3945    0.0000 C.2     1  UNL1        0.3045
     32 C           8.5171   -3.0794    0.0000 C.3     1  UNL1        0.0368
     33 C          12.6563   -0.1507    0.0000 C.3     1  UNL1       -0.0523
     34 C          10.6060    1.9825    0.0000 C.3     1  UNL1        0.0368
     35 C           5.2025    0.4852    0.0000 C.2     1  UNL1        0.3323
     36 C           5.7065    2.9370    0.0000 C.3     1  UNL1        0.0369
     37 C           5.2075   -2.3669    0.0000 C.3     1  UNL1        0.0333
     38 C          10.6060   -3.7526    0.0000 C.3     1  UNL1        0.0365
     39 C           4.2973    0.9101    0.0000 C.2     1  UNL1        0.0231
     40 C           4.2126    1.9065    0.0000 C.2     1  UNL1       -0.0478
     41 C           3.3074    2.3313    0.0000 C.ar    1  UNL1       -0.0248
     42 C           2.4868    1.7598    0.0000 C.ar    1  UNL1       -0.0546
     43 C           3.2227    3.3278    0.0000 C.ar    1  UNL1       -0.0546
     44 C           1.5815    2.1847    0.0000 C.ar    1  UNL1       -0.0612
     45 C           2.3174    3.7526    0.0000 C.ar    1  UNL1       -0.0612
     46 C           1.4969    3.1811    0.0000 C.ar    1  UNL1       -0.0617
     47 H           9.0522   -1.6665    0.0000 H       1  UNL1        0.0339
     48 H           9.0919    0.9237    0.0000 H       1  UNL1        0.0314
     49 H          10.4351    0.6672    0.0000 H       1  UNL1        0.0474
     50 H           6.9345   -1.8313    0.0000 H       1  UNL1        0.0380
     51 H           6.6154    0.3585    0.0000 H       1  UNL1        0.0379
     52 H           8.5107   -1.9465    0.0000 H       1  UNL1        0.0603
     53 H           9.2030    0.7925    0.0000 H       1  UNL1        0.0602
     54 H           8.5709    2.0462    0.0000 H       1  UNL1        0.0298
     55 H           8.9964    1.3339    0.0000 H       1  UNL1        0.0298
     56 H           6.7394    1.6945    0.0000 H       1  UNL1        0.0768
     57 H           6.2812   -0.7136    0.0000 H       1  UNL1        0.0330
     58 H           5.8286   -0.0334    0.0000 H       1  UNL1        0.0330
     59 H          11.5547   -1.0719    0.0000 H       1  UNL1        0.0433
     60 H          10.9883   -1.7161    0.0000 H       1  UNL1        0.0433
     61 H          11.1019   -0.7112    0.0000 H       1  UNL1        0.0273
     62 H          10.7034   -1.4014    0.0000 H       1  UNL1        0.0273
     63 H           6.5214    1.9844    0.0000 H       1  UNL1        0.0627
     64 H          10.7034    0.6313    0.0000 H       1  UNL1        0.0290
     65 H          11.1019   -0.0589    0.0000 H       1  UNL1        0.0290
     66 H           9.5279   -2.8352    0.0000 H       1  UNL1        0.0566
     67 H           9.1294   -2.1450    0.0000 H       1  UNL1        0.0566
     68 H          11.2896    0.6750    0.0000 H       1  UNL1        0.0424
     69 H          12.0816    0.7651    0.0000 H       1  UNL1        0.0424
     70 H           7.0856    3.1174    0.0000 H       1  UNL1        0.2104
     71 H           9.0132   -2.7075    0.0000 H       1  UNL1        0.0524
     72 H           8.8890   -3.5755    0.0000 H       1  UNL1        0.0524
     73 H           8.0210   -3.4513    0.0000 H       1  UNL1        0.0524
     74 H          12.9036    0.4178    0.0000 H       1  UNL1        0.0242
     75 H          13.2248   -0.3981    0.0000 H       1  UNL1        0.0242
     76 H          12.4089   -0.7193    0.0000 H       1  UNL1        0.0242
     77 H          10.2960    2.5195    0.0000 H       1  UNL1        0.0524
     78 H          11.1429    2.2925    0.0000 H       1  UNL1        0.0524
     79 H          10.9160    1.4456    0.0000 H       1  UNL1        0.0524
     80 H           5.0887    2.9891    0.0000 H       1  UNL1        0.0524
     81 H           5.7587    3.5548    0.0000 H       1  UNL1        0.0524
     82 H           6.3243    2.8848    0.0000 H       1  UNL1        0.0524
     83 H           5.8104   -2.5116    0.0000 H       1  UNL1        0.0342
     84 H           5.0628   -2.9697    0.0000 H       1  UNL1        0.0342
     85 H           4.6046   -2.2221    0.0000 H       1  UNL1        0.0342
     86 H          11.2260   -3.7526    0.0000 H       1  UNL1        0.0523
     87 H          10.6060   -4.3726    0.0000 H       1  UNL1        0.0523
     88 H           9.9860   -3.7526    0.0000 H       1  UNL1        0.0523
     89 H           3.7885    0.5557    0.0000 H       1  UNL1        0.0689
     90 H           4.7214    2.2608    0.0000 H       1  UNL1        0.0626
     91 H           2.5393    1.1420    0.0000 H       1  UNL1        0.0623
     92 H           3.7315    3.6821    0.0000 H       1  UNL1        0.0623
     93 H           1.0728    1.8303    0.0000 H       1  UNL1        0.0618
     94 H           2.2649    4.3704    0.0000 H       1  UNL1        0.0618
     95 H           0.9356    3.4445    0.0000 H       1  UNL1        0.0618
@<TRIPOS>BOND
     1    17     1    1
     2     1    31    1
     3    18     2    1
     4     2    32    1
     5    20     3    1
     6     3    34    1
     7    23     4    1
     8     4    35    1
     9    22     5    1
    10     5    70    1
    11    27     6    1
    12     6    36    1
    13     7    29    1
    14     7    38    1
    15     8    31    2
    16     9    35    2
    17    10    14    1
    18    10    25    1
    19    10    30    1
    20    11    12    1
    21    11    13    1
    22    11    14    1
    23    11    20    1
    24    12    18    1
    25    12    19    1
    26    12    47    1
    27    13    16    1
    28    13    21    1
    29    13    48    1
    30    14    15    1
    31    14    49    1
    32    15    17    1
    33    15    18    1
    34    15    50    1
    35    16    17    1
    36    16    23    1
    37    16    51    1
    38    17    24    1
    39    18    52    1
    40    19    25    1
    41    19    26    1
    42    19    29    1
    43    20    28    1
    44    20    53    1
    45    21    22    1
    46    21    54    1
    47    21    55    1
    48    22    23    1
    49    22    27    1
    50    23    56    1
    51    24    27    1
    52    24    57    1
    53    24    58    1
    54    25    59    1
    55    25    60    1
    56    26    28    1
    57    26    61    1
    58    26    62    1
    59    27    63    1
    60    28    64    1
    61    28    65    1
    62    29    66    1
    63    29    67    1
    64    30    33    1
    65    30    68    1
    66    30    69    1
    67    31    37    1
    68    32    71    1
    69    32    72    1
    70    32    73    1
    71    33    74    1
    72    33    75    1
    73    33    76    1
    74    34    77    1
    75    34    78    1
    76    34    79    1
    77    35    39    1
    78    36    80    1
    79    36    81    1
    80    36    82    1
    81    37    83    1
    82    37    84    1
    83    37    85    1
    84    38    86    1
    85    38    87    1
    86    38    88    1
    87    39    40    2
    88    39    89    1
    89    40    41    1
    90    40    90    1
    91    41    42   ar
    92    41    43   ar
    93    42    44   ar
    94    42    91    1
    95    43    45   ar
    96    43    92    1
    97    44    46   ar
    98    44    93    1
    99    45    46   ar
   100    45    94    1
   101    46    95    1
