@<TRIPOS>MOLECULE
IMPHY001928
 30 31 0 0 0
SMALL
GASTEIGER

@<TRIPOS>ATOM
      1 O           5.4641   -0.5950    0.0000 O.2     1  UNL1       -0.2917
      2 O           5.4641   -3.5950    0.0000 O.3     1  UNL1       -0.5066
      3 O           2.0000   -3.5950    0.0000 O.3     1  UNL1       -0.5066
      4 O           4.5981    3.9050    0.0000 O.3     1  UNL1       -0.5068
      5 C           3.7320   -0.5950    0.0000 C.3     1  UNL1        0.0359
      6 C           3.7320   -1.5950    0.0000 C.ar    1  UNL1       -0.0330
      7 C           4.5981   -0.0950    0.0000 C.2     1  UNL1        0.1674
      8 C           4.5981    0.9050    0.0000 C.ar    1  UNL1        0.0179
      9 C           2.8660   -2.0950    0.0000 C.ar    1  UNL1       -0.0164
     10 C           4.5981   -2.0950    0.0000 C.ar    1  UNL1       -0.0164
     11 C           4.5981   -3.0950    0.0000 C.ar    1  UNL1        0.1206
     12 C           2.8660   -3.0950    0.0000 C.ar    1  UNL1        0.1206
     13 C           5.4641    1.4050    0.0000 C.ar    1  UNL1       -0.0478
     14 C           3.7320    1.4050    0.0000 C.ar    1  UNL1       -0.0478
     15 C           3.7320   -3.5950    0.0000 C.ar    1  UNL1        0.0213
     16 C           5.4641    2.4050    0.0000 C.ar    1  UNL1       -0.0195
     17 C           3.7320    2.4050    0.0000 C.ar    1  UNL1       -0.0195
     18 C           4.5981    2.9050    0.0000 C.ar    1  UNL1        0.1169
     19 H           3.5200   -0.0124    0.0000 H       1  UNL1        0.0394
     20 H           3.1215   -0.7027    0.0000 H       1  UNL1        0.0394
     21 H           2.3291   -1.7850    0.0000 H       1  UNL1        0.0657
     22 H           5.1350   -1.7850    0.0000 H       1  UNL1        0.0657
     23 H           6.0010    1.0950    0.0000 H       1  UNL1        0.0626
     24 H           3.1951    1.0950    0.0000 H       1  UNL1        0.0626
     25 H           3.7320   -4.2150    0.0000 H       1  UNL1        0.0691
     26 H           6.0010    2.7150    0.0000 H       1  UNL1        0.0654
     27 H           3.1951    2.7150    0.0000 H       1  UNL1        0.0654
     28 H           5.4641   -4.2150    0.0000 H       1  UNL1        0.2921
     29 H           2.0000   -4.2150    0.0000 H       1  UNL1        0.2921
     30 H           5.1350    4.2150    0.0000 H       1  UNL1        0.2921
@<TRIPOS>BOND
     1     1     7    2
     2     2    11    1
     3     2    28    1
     4     3    12    1
     5     3    29    1
     6     4    18    1
     7     4    30    1
     8     5     6    1
     9     5     7    1
    10     5    19    1
    11     5    20    1
    12     6     9   ar
    13     6    10   ar
    14     7     8    1
    15     8    13   ar
    16     8    14   ar
    17     9    12   ar
    18     9    21    1
    19    10    11   ar
    20    10    22    1
    21    11    15   ar
    22    12    15   ar
    23    13    16   ar
    24    13    23    1
    25    14    17   ar
    26    14    24    1
    27    15    25    1
    28    16    18   ar
    29    16    26    1
    30    17    18   ar
    31    17    27    1
