@<TRIPOS>MOLECULE
IMPHY004582
 26 26 0 0 0
SMALL
GASTEIGER

@<TRIPOS>ATOM
      1 C           4.5981   -1.2500    0.0000 C.3     1  UNL1       -0.0454
      2 C           4.5981   -0.2500    0.0000 C.3     1  UNL1       -0.0275
      3 C           3.7320   -1.7500    0.0000 C.3     1  UNL1       -0.0314
      4 C           3.7320    0.2500    0.0000 C.2     1  UNL1       -0.0487
      5 C           2.8660   -1.2500    0.0000 C.2     1  UNL1       -0.0724
      6 C           2.8660   -0.2500    0.0000 C.2     1  UNL1       -0.0596
      7 C           3.7320    1.2500    0.0000 C.2     1  UNL1       -0.0725
      8 C           2.0000   -1.7500    0.0000 C.3     1  UNL1       -0.0435
      9 C           4.5981    1.7500    0.0000 C.3     1  UNL1       -0.0435
     10 C           2.8660    1.7500    0.0000 C.3     1  UNL1       -0.0435
     11 H           4.8101   -1.8326    0.0000 H       1  UNL1        0.0271
     12 H           5.2087   -1.1423    0.0000 H       1  UNL1        0.0271
     13 H           5.2087   -0.3577    0.0000 H       1  UNL1        0.0313
     14 H           4.8101    0.3326    0.0000 H       1  UNL1        0.0313
     15 H           3.3335   -2.2250    0.0000 H       1  UNL1        0.0310
     16 H           4.1306   -2.2250    0.0000 H       1  UNL1        0.0310
     17 H           2.3291    0.0600    0.0000 H       1  UNL1        0.0620
     18 H           1.6900   -1.2131    0.0000 H       1  UNL1        0.0274
     19 H           1.4631   -2.0600    0.0000 H       1  UNL1        0.0274
     20 H           2.3100   -2.2869    0.0000 H       1  UNL1        0.0274
     21 H           3.1760    2.2869    0.0000 H       1  UNL1        0.0274
     22 H           2.3291    2.0600    0.0000 H       1  UNL1        0.0274
     23 H           2.5560    1.2131    0.0000 H       1  UNL1        0.0274
     24 H           4.9081    1.2131    0.0000 H       1  UNL1        0.0274
     25 H           5.1350    2.0600    0.0000 H       1  UNL1        0.0274
     26 H           4.2881    2.2869    0.0000 H       1  UNL1        0.0274
@<TRIPOS>BOND
     1     1     2    1
     2     1     3    1
     3     1    11    1
     4     1    12    1
     5     2     4    1
     6     2    13    1
     7     2    14    1
     8     3     5    1
     9     3    15    1
    10     3    16    1
    11     4     6    1
    12     4     7    2
    13     5     6    2
    14     5     8    1
    15     6    17    1
    16     7     9    1
    17     7    10    1
    18     8    18    1
    19     8    19    1
    20     8    20    1
    21     9    24    1
    22     9    25    1
    23     9    26    1
    24    10    21    1
    25    10    22    1
    26    10    23    1
