@<TRIPOS>MOLECULE
IMPHY008450
 57 59 0 0 0
SMALL
GASTEIGER

@<TRIPOS>ATOM
      1 O           4.5197    0.8126    0.0000 O.3     1  UNL1       -0.4574
      2 O           7.0598    0.3237    0.0000 O.3     1  UNL1       -0.4574
      3 O           3.2504   -1.5602    0.0000 O.3     1  UNL1       -0.3774
      4 O           6.9202   -1.8499    0.0000 O.3     1  UNL1       -0.4468
      5 O           2.8070    0.8238    0.0000 O.2     1  UNL1       -0.2476
      6 O           7.9258   -1.1539    0.0000 O.2     1  UNL1       -0.2463
      7 O           5.6955   -3.0746    0.0000 O.2     1  UNL1       -0.2511
      8 N           5.3665    3.2567    0.0000 N.3     1  UNL1       -0.2886
      9 C           5.3665    2.2791    0.0000 C.3     1  UNL1        0.0723
     10 C           4.5197    1.7902    0.0000 C.3     1  UNL1        0.1236
     11 C           3.8252    2.7190    0.0000 C.3     1  UNL1       -0.0010
     12 C           4.3466    3.5012    0.0000 C.3     1  UNL1        0.0033
     13 C           6.2131    1.7902    0.0000 C.2     1  UNL1       -0.0148
     14 C           6.3019    3.5228    0.0000 C.3     1  UNL1        0.0182
     15 C           6.9102    2.7190    0.0000 C.2     1  UNL1       -0.0660
     16 C           3.6730   -0.6539    0.0000 C.3     1  UNL1        0.1621
     17 C           5.3665   -0.6539    0.0000 C.3     1  UNL1        0.0097
     18 C           4.5197   -1.1428    0.0000 C.3     1  UNL1       -0.0068
     19 C           6.2131    0.8126    0.0000 C.3     1  UNL1        0.1153
     20 C           6.2131   -1.1428    0.0000 C.3     1  UNL1        0.2087
     21 C           3.6730    0.3237    0.0000 C.2     1  UNL1        0.3395
     22 C           2.7071   -0.9127    0.0000 C.3     1  UNL1       -0.0163
     23 C           7.0598   -0.6539    0.0000 C.2     1  UNL1        0.3518
     24 C           5.3664    0.3461    0.0000 C.3     1  UNL1       -0.0581
     25 C           5.9543   -2.1087    0.0000 C.3     1  UNL1       -0.0139
     26 C           2.0000   -0.2056    0.0000 C.3     1  UNL1       -0.0621
     27 C           6.6615   -2.8158    0.0000 C.2     1  UNL1        0.3050
     28 C           7.3686   -3.5228    0.0000 C.3     1  UNL1        0.0333
     29 H           5.3665    1.4291    0.0000 H       1  UNL1        0.0547
     30 H           3.7131    1.5220    0.0000 H       1  UNL1        0.0753
     31 H           3.3516    3.1192    0.0000 H       1  UNL1        0.0314
     32 H           3.3739    2.2938    0.0000 H       1  UNL1        0.0314
     33 H           4.5608    4.0830    0.0000 H       1  UNL1        0.0428
     34 H           3.7939    3.7822    0.0000 H       1  UNL1        0.0428
     35 H           6.8386    3.8332    0.0000 H       1  UNL1        0.0470
     36 H           6.0600    4.0937    0.0000 H       1  UNL1        0.0470
     37 H           7.5302    2.7202    0.0000 H       1  UNL1        0.0586
     38 H           5.9034   -0.3439    0.0000 H       1  UNL1        0.0343
     39 H           4.1212   -1.6177    0.0000 H       1  UNL1        0.0302
     40 H           4.9182   -1.6177    0.0000 H       1  UNL1        0.0302
     41 H           5.6025    0.9202    0.0000 H       1  UNL1        0.0746
     42 H           6.0010    0.2300    0.0000 H       1  UNL1        0.0746
     43 H           2.1992   -1.2684    0.0000 H       1  UNL1        0.0296
     44 H           2.9691   -1.4747    0.0000 H       1  UNL1        0.0296
     45 H           5.9864    0.3461    0.0000 H       1  UNL1        0.0234
     46 H           5.3664    0.9661    0.0000 H       1  UNL1        0.0234
     47 H           4.7464    0.3461    0.0000 H       1  UNL1        0.0234
     48 H           5.3554   -1.9482    0.0000 H       1  UNL1        0.0274
     49 H           5.7938   -2.7076    0.0000 H       1  UNL1        0.0274
     50 H           6.5532   -2.2691    0.0000 H       1  UNL1        0.0274
     51 H           3.6061   -2.0681    0.0000 H       1  UNL1        0.2109
     52 H           2.4384    0.2328    0.0000 H       1  UNL1        0.0231
     53 H           1.5616    0.2328    0.0000 H       1  UNL1        0.0231
     54 H           1.5616   -0.6441    0.0000 H       1  UNL1        0.0231
     55 H           6.9302   -3.9613    0.0000 H       1  UNL1        0.0342
     56 H           7.8070   -3.9612    0.0000 H       1  UNL1        0.0342
     57 H           7.8070   -3.0844    0.0000 H       1  UNL1        0.0342
@<TRIPOS>BOND
     1     1    10    1
     2     1    21    1
     3     2    19    1
     4     2    23    1
     5    16     3    1
     6     3    51    1
     7    20     4    1
     8     4    27    1
     9     5    21    2
    10     6    23    2
    11     7    27    2
    12     8     9    1
    13     8    12    1
    14     8    14    1
    15     9    10    1
    16     9    13    1
    17     9    29    1
    18    10    11    1
    19    10    30    1
    20    11    12    1
    21    11    31    1
    22    11    32    1
    23    12    33    1
    24    12    34    1
    25    13    15    2
    26    13    19    1
    27    14    15    1
    28    14    35    1
    29    14    36    1
    30    15    37    1
    31    16    18    1
    32    16    21    1
    33    16    22    1
    34    17    18    1
    35    17    20    1
    36    17    24    1
    37    17    38    1
    38    18    39    1
    39    18    40    1
    40    19    41    1
    41    19    42    1
    42    20    23    1
    43    20    25    1
    44    22    26    1
    45    22    43    1
    46    22    44    1
    47    24    45    1
    48    24    46    1
    49    24    47    1
    50    25    48    1
    51    25    49    1
    52    25    50    1
    53    26    52    1
    54    26    53    1
    55    26    54    1
    56    27    28    1
    57    28    55    1
    58    28    56    1
    59    28    57    1
