@<TRIPOS>MOLECULE
IMPHY005924
 50 54 0 0 0
SMALL
GASTEIGER

@<TRIPOS>ATOM
      1 O           5.9469    2.0484    0.0000 O.3     1  UNL1       -0.3935
      2 O           7.4469   -0.5497    0.0000 O.3     1  UNL1       -0.4672
      3 O           7.4469    1.1823    0.0000 O.2     1  UNL1       -0.2497
      4 N           3.3369   -0.9570    0.0000 N.3     1  UNL1       -0.2945
      5 N           4.9022    1.7542    0.0000 N.2     1  UNL1       -0.2540
      6 C           4.2620    0.3163    0.0000 C.3     1  UNL1        0.0575
      7 C           4.2620   -0.6564    0.0000 C.3     1  UNL1        0.0468
      8 C           5.9469   -0.6564    0.0000 C.3     1  UNL1        0.0059
      9 C           5.9469    0.3163    0.0000 C.3     1  UNL1        0.1358
     10 C           5.1045    0.8027    0.0000 C.2     1  UNL1        0.0515
     11 C           3.3369    0.6169    0.0000 C.3     1  UNL1       -0.0235
     12 C           5.1045   -1.1428    0.0000 C.2     1  UNL1       -0.0509
     13 C           2.7652   -0.1701    0.0000 C.3     1  UNL1        0.0007
     14 C           5.3422   -1.7048    0.0000 C.3     1  UNL1       -0.0322
     15 C           4.1101   -1.7048    0.0000 C.3     1  UNL1        0.0001
     16 C           3.5392    0.9672    0.0000 C.ar    1  UNL1       -0.0085
     17 C           6.4469    1.1823    0.0000 C.3     1  UNL1        0.0658
     18 C           3.9348    1.8558    0.0000 C.ar    1  UNL1        0.0680
     19 C           6.9469    0.3163    0.0000 C.2     1  UNL1        0.3215
     20 C           5.1045   -2.1428    0.0000 C.2     1  UNL1       -0.0860
     21 C           2.5718    0.8655    0.0000 C.ar    1  UNL1       -0.0556
     22 C           3.3630    2.6428    0.0000 C.ar    1  UNL1       -0.0360
     23 C           4.2384   -2.6428    0.0000 C.3     1  UNL1       -0.0465
     24 C           2.0000    1.6525    0.0000 C.ar    1  UNL1       -0.0613
     25 C           2.3956    2.5411    0.0000 C.ar    1  UNL1       -0.0597
     26 C           8.4469   -0.5497    0.0000 C.3     1  UNL1        0.0817
     27 H           4.1972   -1.2730    0.0000 H       1  UNL1        0.0521
     28 H           6.5458   -0.8168    0.0000 H       1  UNL1        0.0362
     29 H           3.5891    1.1833    0.0000 H       1  UNL1        0.0290
     30 H           2.8000    0.9269    0.0000 H       1  UNL1        0.0290
     31 H           2.3044    0.2448    0.0000 H       1  UNL1        0.0427
     32 H           2.3044   -0.5849    0.0000 H       1  UNL1        0.0427
     33 H           5.2347   -2.3154    0.0000 H       1  UNL1        0.0284
     34 H           5.9249   -1.9167    0.0000 H       1  UNL1        0.0284
     35 H           3.5767   -2.0208    0.0000 H       1  UNL1        0.0427
     36 H           4.2739   -2.3028    0.0000 H       1  UNL1        0.0427
     37 H           6.9218    0.7838    0.0000 H       1  UNL1        0.0572
     38 H           6.9218    1.5809    0.0000 H       1  UNL1        0.0572
     39 H           5.6414   -2.4528    0.0000 H       1  UNL1        0.0569
     40 H           2.3196    0.2991    0.0000 H       1  UNL1        0.0621
     41 H           3.6152    3.2092    0.0000 H       1  UNL1        0.0639
     42 H           3.9284   -2.1059    0.0000 H       1  UNL1        0.0272
     43 H           3.7015   -2.9528    0.0000 H       1  UNL1        0.0272
     44 H           4.5484   -3.1797    0.0000 H       1  UNL1        0.0272
     45 H           1.3834    1.5877    0.0000 H       1  UNL1        0.0618
     46 H           6.2569    2.5853    0.0000 H       1  UNL1        0.2095
     47 H           2.0312    3.0427    0.0000 H       1  UNL1        0.0618
     48 H           8.4469   -1.1697    0.0000 H       1  UNL1        0.0661
     49 H           9.0669   -0.5497    0.0000 H       1  UNL1        0.0661
     50 H           8.4469    0.0703    0.0000 H       1  UNL1        0.0661
@<TRIPOS>BOND
     1     1    17    1
     2     1    46    1
     3     2    19    1
     4     2    26    1
     5     3    19    2
     6     4     7    1
     7     4    13    1
     8     4    15    1
     9     5    10    2
    10     5    18    1
    11     6     7    1
    12     6    10    1
    13     6    11    1
    14     6    16    1
    15     7    12    1
    16     7    27    1
    17     8     9    1
    18     8    12    1
    19     8    14    1
    20     8    28    1
    21     9    10    1
    22     9    17    1
    23     9    19    1
    24    11    13    1
    25    11    29    1
    26    11    30    1
    27    12    20    2
    28    13    31    1
    29    13    32    1
    30    14    15    1
    31    14    33    1
    32    14    34    1
    33    15    35    1
    34    15    36    1
    35    16    18   ar
    36    16    21   ar
    37    17    37    1
    38    17    38    1
    39    18    22   ar
    40    20    23    1
    41    20    39    1
    42    21    24   ar
    43    21    40    1
    44    22    25   ar
    45    22    41    1
    46    23    42    1
    47    23    43    1
    48    23    44    1
    49    24    25   ar
    50    24    45    1
    51    25    47    1
    52    26    48    1
    53    26    49    1
    54    26    50    1
