@<TRIPOS>MOLECULE
IMPHY002181
 78 81 0 0 0
SMALL
GASTEIGER

@<TRIPOS>ATOM
      1 O           7.9174   -2.1219    0.0000 O.3     1  UNL1       -0.3877
      2 O           6.1733   -4.1911    0.0000 O.2     1  UNL1       -0.2971
      3 O           2.5405   -1.0826    0.0000 O.3     1  UNL1       -0.3892
      4 O           2.5244   -3.1742    0.0000 O.3     1  UNL1       -0.3892
      5 O          10.8207    0.5953    0.0000 O.3     1  UNL1       -0.3915
      6 C           7.9174   -0.1219    0.0000 C.3     1  UNL1        0.0002
      7 C           7.9174   -1.1219    0.0000 C.3     1  UNL1        0.0752
      8 C           7.0514   -1.6219    0.0000 C.3     1  UNL1       -0.0016
      9 C           6.1854   -1.1219    0.0000 C.3     1  UNL1       -0.0290
     10 C           5.2754   -1.6287    0.0000 C.3     1  UNL1       -0.0169
     11 C           8.8637    0.1828    0.0000 C.3     1  UNL1       -0.0280
     12 C           7.0514    0.3781    0.0000 C.3     1  UNL1       -0.0445
     13 C           6.1854   -0.1219    0.0000 C.3     1  UNL1       -0.0487
     14 C           8.8637   -1.4266    0.0000 C.3     1  UNL1       -0.0229
     15 C           9.4473   -0.6219    0.0000 C.3     1  UNL1       -0.0467
     16 C           5.2674   -2.6703    0.0000 C.3     1  UNL1        0.0256
     17 C           7.0675   -2.6634    0.0000 C.3     1  UNL1        0.0118
     18 C           4.3486   -1.0647    0.0000 C.3     1  UNL1       -0.0181
     19 C           7.9174    0.8781    0.0000 C.3     1  UNL1       -0.0567
     20 C           9.1743    1.1334    0.0000 C.3     1  UNL1       -0.0144
     21 C           6.1694   -3.1912    0.0000 C.2     1  UNL1        0.1374
     22 C           4.3319   -3.2201    0.0000 C.3     1  UNL1       -0.0144
     23 C           5.2831   -0.6288    0.0000 C.3     1  UNL1       -0.0586
     24 C           3.4007   -1.5926    0.0000 C.3     1  UNL1        0.0816
     25 C           3.3923   -2.6776    0.0000 C.3     1  UNL1        0.0817
     26 C          10.1528    1.3396    0.0000 C.3     1  UNL1        0.0581
     27 C           8.5065    1.8777    0.0000 C.3     1  UNL1       -0.0598
     28 C          10.4635    2.2901    0.0000 C.3     1  UNL1       -0.0264
     29 C          11.4420    2.4963    0.0000 C.3     1  UNL1       -0.0484
     30 C          11.7527    3.4468    0.0000 C.3     1  UNL1       -0.0466
     31 C          12.7312    3.6531    0.0000 C.3     1  UNL1       -0.0627
     32 C          11.0848    4.1911    0.0000 C.3     1  UNL1       -0.0627
     33 H           7.7908   -2.0412    0.0000 H       1  UNL1        0.0336
     34 H           6.9215   -0.6969    0.0000 H       1  UNL1        0.0310
     35 H           9.7034    0.3147    0.0000 H       1  UNL1        0.0310
     36 H           7.4500    0.8531    0.0000 H       1  UNL1        0.0272
     37 H           6.6529    0.8531    0.0000 H       1  UNL1        0.0272
     38 H           5.9733    0.4607    0.0000 H       1  UNL1        0.0268
     39 H           5.5748   -0.2296    0.0000 H       1  UNL1        0.0268
     40 H           8.6126   -1.9935    0.0000 H       1  UNL1        0.0293
     41 H           9.4010   -1.7358    0.0000 H       1  UNL1        0.0293
     42 H           9.9081   -1.0366    0.0000 H       1  UNL1        0.0269
     43 H           9.9081   -0.2072    0.0000 H       1  UNL1        0.0269
     44 H           5.2706   -3.5203    0.0000 H       1  UNL1        0.0384
     45 H           7.2855   -3.2438    0.0000 H       1  UNL1        0.0345
     46 H           7.6766   -2.5479    0.0000 H       1  UNL1        0.0345
     47 H           4.7568   -0.5980    0.0000 H       1  UNL1        0.0296
     48 H           3.9586   -0.5826    0.0000 H       1  UNL1        0.0296
     49 H           8.5374    0.8781    0.0000 H       1  UNL1        0.0236
     50 H           7.9174    1.4981    0.0000 H       1  UNL1        0.0236
     51 H           7.2974    0.8781    0.0000 H       1  UNL1        0.0236
     52 H           8.5676    1.0055    0.0000 H       1  UNL1        0.0326
     53 H           3.9346   -3.6960    0.0000 H       1  UNL1        0.0298
     54 H           4.7329   -3.6930    0.0000 H       1  UNL1        0.0298
     55 H           5.9031   -0.6335    0.0000 H       1  UNL1        0.0235
     56 H           5.2879   -0.0088    0.0000 H       1  UNL1        0.0235
     57 H           4.6631   -0.6240    0.0000 H       1  UNL1        0.0235
     58 H           8.4544   -2.4319    0.0000 H       1  UNL1        0.2102
     59 H           2.8608   -1.8974    0.0000 H       1  UNL1        0.0619
     60 H           2.8572   -2.3645    0.0000 H       1  UNL1        0.0619
     61 H           9.9602    0.7503    0.0000 H       1  UNL1        0.0596
     62 H           8.9680    2.2917    0.0000 H       1  UNL1        0.0233
     63 H           8.0924    2.3391    0.0000 H       1  UNL1        0.0233
     64 H           8.0450    1.4636    0.0000 H       1  UNL1        0.0233
     65 H          10.4429    2.9098    0.0000 H       1  UNL1        0.0290
     66 H           9.8497    2.3774    0.0000 H       1  UNL1        0.0290
     67 H           2.0000   -1.3864    0.0000 H       1  UNL1        0.2099
     68 H           2.5220   -3.7942    0.0000 H       1  UNL1        0.2099
     69 H          11.4273    0.7231    0.0000 H       1  UNL1        0.2098
     70 H          11.4626    1.8767    0.0000 H       1  UNL1        0.0269
     71 H          12.0558    2.4090    0.0000 H       1  UNL1        0.0269
     72 H          11.9453    4.0362    0.0000 H       1  UNL1        0.0295
     73 H          12.8590    3.0464    0.0000 H       1  UNL1        0.0232
     74 H          11.5463    4.6052    0.0000 H       1  UNL1        0.0232
     75 H          10.6708    4.6526    0.0000 H       1  UNL1        0.0232
     76 H          10.6234    3.7771    0.0000 H       1  UNL1        0.0232
     77 H          13.3378    3.7809    0.0000 H       1  UNL1        0.0232
     78 H          12.6033    4.2597    0.0000 H       1  UNL1        0.0232
@<TRIPOS>BOND
     1     7     1    1
     2     1    58    1
     3     2    21    2
     4    24     3    1
     5     3    67    1
     6    25     4    1
     7     4    68    1
     8    26     5    1
     9     5    69    1
    10     6     7    1
    11     6    11    1
    12     6    12    1
    13     6    19    1
    14     7     8    1
    15     7    14    1
    16     8     9    1
    17     8    17    1
    18     8    33    1
    19     9    10    1
    20     9    13    1
    21     9    34    1
    22    10    16    1
    23    10    18    1
    24    10    23    1
    25    11    15    1
    26    11    20    1
    27    11    35    1
    28    12    13    1
    29    12    36    1
    30    12    37    1
    31    13    38    1
    32    13    39    1
    33    14    15    1
    34    14    40    1
    35    14    41    1
    36    15    42    1
    37    15    43    1
    38    16    21    1
    39    16    22    1
    40    16    44    1
    41    17    21    1
    42    17    45    1
    43    17    46    1
    44    18    24    1
    45    18    47    1
    46    18    48    1
    47    19    49    1
    48    19    50    1
    49    19    51    1
    50    20    26    1
    51    20    27    1
    52    20    52    1
    53    22    25    1
    54    22    53    1
    55    22    54    1
    56    23    55    1
    57    23    56    1
    58    23    57    1
    59    24    25    1
    60    24    59    1
    61    25    60    1
    62    26    28    1
    63    26    61    1
    64    27    62    1
    65    27    63    1
    66    27    64    1
    67    28    29    1
    68    28    65    1
    69    28    66    1
    70    29    30    1
    71    29    70    1
    72    29    71    1
    73    30    31    1
    74    30    32    1
    75    30    72    1
    76    31    73    1
    77    31    77    1
    78    31    78    1
    79    32    74    1
    80    32    75    1
    81    32    76    1
