@<TRIPOS>MOLECULE
IMPHY017366
 30 29 0 0 0
SMALL
GASTEIGER

@<TRIPOS>ATOM
      1 O           3.7320    0.0000    0.0000 O.3     1  UNL1       -0.4648
      2 O           2.8660   -1.5000    0.0000 O.2     1  UNL1       -0.2512
      3 C           6.3301   -0.5000    0.0000 C.3     1  UNL1       -0.0465
      4 C           5.4641    0.0000    0.0000 C.3     1  UNL1       -0.0183
      5 C           7.1962    0.0000    0.0000 C.3     1  UNL1       -0.0347
      6 C           4.5981   -0.5000    0.0000 C.3     1  UNL1        0.0925
      7 C           8.0622   -0.5000    0.0000 C.2     1  UNL1       -0.0879
      8 C           8.9282   -0.0000    0.0000 C.2     1  UNL1       -0.0882
      9 C           8.9282    1.0000    0.0000 C.3     1  UNL1       -0.0376
     10 C           9.7942    1.5000    0.0000 C.3     1  UNL1       -0.0618
     11 C           2.8660   -0.5000    0.0000 C.2     1  UNL1        0.3039
     12 C           2.0000    0.0000    0.0000 C.3     1  UNL1        0.0332
     13 H           5.9316   -0.9749    0.0000 H       1  UNL1        0.0269
     14 H           6.7287   -0.9749    0.0000 H       1  UNL1        0.0269
     15 H           5.8626    0.4749    0.0000 H       1  UNL1        0.0298
     16 H           5.0656    0.4749    0.0000 H       1  UNL1        0.0298
     17 H           7.5947    0.4749    0.0000 H       1  UNL1        0.0307
     18 H           6.7976    0.4749    0.0000 H       1  UNL1        0.0307
     19 H           4.1996   -0.9749    0.0000 H       1  UNL1        0.0697
     20 H           4.9966   -0.9749    0.0000 H       1  UNL1        0.0697
     21 H           8.0622   -1.1200    0.0000 H       1  UNL1        0.0569
     22 H           9.4651   -0.3100    0.0000 H       1  UNL1        0.0569
     23 H           8.7162    1.5826    0.0000 H       1  UNL1        0.0305
     24 H           8.3176    0.8923    0.0000 H       1  UNL1        0.0305
     25 H          10.1042    0.9631    0.0000 H       1  UNL1        0.0233
     26 H          10.3312    1.8100    0.0000 H       1  UNL1        0.0233
     27 H           9.4842    2.0369    0.0000 H       1  UNL1        0.0233
     28 H           2.3100    0.5369    0.0000 H       1  UNL1        0.0342
     29 H           1.4631    0.3100    0.0000 H       1  UNL1        0.0342
     30 H           1.6900   -0.5369    0.0000 H       1  UNL1        0.0342
@<TRIPOS>BOND
     1     1     6    1
     2     1    11    1
     3     2    11    2
     4     3     4    1
     5     3     5    1
     6     3    13    1
     7     3    14    1
     8     4     6    1
     9     4    15    1
    10     4    16    1
    11     5     7    1
    12     5    17    1
    13     5    18    1
    14     6    19    1
    15     6    20    1
    16     7     8    2
    17     7    21    1
    18     8     9    1
    19     8    22    1
    20     9    10    1
    21     9    23    1
    22     9    24    1
    23    10    25    1
    24    10    26    1
    25    10    27    1
    26    11    12    1
    27    12    28    1
    28    12    29    1
    29    12    30    1
