@<TRIPOS>MOLECULE
IMPHY017083
 27 26 0 0 0
SMALL
GASTEIGER

@<TRIPOS>ATOM
      1 O           2.5369    0.5000    0.0000 O.2     1  UNL1       -0.4093
      2 N           3.4030    1.0000    0.0000 N.2     1  UNL1       -0.0965
      3 C           6.0010    0.5000    0.0000 C.3     1  UNL1       -0.0479
      4 C           6.8671    1.0000    0.0000 C.3     1  UNL1       -0.0530
      5 C           5.1350    1.0000    0.0000 C.3     1  UNL1       -0.0112
      6 C           7.7331    0.5000    0.0000 C.3     1  UNL1       -0.0559
      7 C           4.2690    0.5000    0.0000 C.2     1  UNL1        0.0572
      8 C           4.2690   -0.5000    0.0000 C.3     1  UNL1       -0.0140
      9 C           8.5991    1.0000    0.0000 C.3     1  UNL1       -0.0653
     10 C           3.4030   -1.0000    0.0000 C.3     1  UNL1       -0.0600
     11 H           5.6025    0.0251    0.0000 H       1  UNL1        0.0269
     12 H           6.3996    0.0251    0.0000 H       1  UNL1        0.0269
     13 H           7.2656    1.4750    0.0000 H       1  UNL1        0.0265
     14 H           6.4685    1.4750    0.0000 H       1  UNL1        0.0265
     15 H           5.5335    1.4750    0.0000 H       1  UNL1        0.0326
     16 H           4.7365    1.4750    0.0000 H       1  UNL1        0.0326
     17 H           7.3346    0.0251    0.0000 H       1  UNL1        0.0263
     18 H           8.1316    0.0251    0.0000 H       1  UNL1        0.0263
     19 H           4.4810   -1.0826    0.0000 H       1  UNL1        0.0323
     20 H           4.8796   -0.3923    0.0000 H       1  UNL1        0.0323
     21 H           8.9091    0.4631    0.0000 H       1  UNL1        0.0230
     22 H           9.1360    1.3100    0.0000 H       1  UNL1        0.0230
     23 H           8.2891    1.5369    0.0000 H       1  UNL1        0.0230
     24 H           3.0930   -0.4631    0.0000 H       1  UNL1        0.0233
     25 H           2.8660   -1.3100    0.0000 H       1  UNL1        0.0233
     26 H           3.7130   -1.5369    0.0000 H       1  UNL1        0.0233
     27 H           2.0000    0.8100    0.0000 H       1  UNL1        0.3278
@<TRIPOS>BOND
     1     1     2    1
     2     1    27    1
     3     2     7    2
     4     3     4    1
     5     3     5    1
     6     3    11    1
     7     3    12    1
     8     4     6    1
     9     4    13    1
    10     4    14    1
    11     5     7    1
    12     5    15    1
    13     5    16    1
    14     6     9    1
    15     6    17    1
    16     6    18    1
    17     7     8    1
    18     8    10    1
    19     8    19    1
    20     8    20    1
    21     9    21    1
    22     9    22    1
    23     9    23    1
    24    10    24    1
    25    10    25    1
    26    10    26    1
