@<TRIPOS>MOLECULE
IMPHY015885
 29 28 0 0 0
SMALL
GASTEIGER

@<TRIPOS>ATOM
      1 O           6.3301    0.2500    0.0000 O.3     1  UNL1       -0.4645
      2 O           7.1962   -1.2500    0.0000 O.2     1  UNL1       -0.2506
      3 C           3.7320   -0.2500    0.0000 C.3     1  UNL1       -0.0502
      4 C           4.5981    0.2500    0.0000 C.3     1  UNL1       -0.0185
      5 C           2.8660    0.2500    0.0000 C.3     1  UNL1       -0.0558
      6 C           5.4641   -0.2500    0.0000 C.3     1  UNL1        0.0925
      7 C           8.0622    0.2500    0.0000 C.3     1  UNL1        0.0508
      8 C           7.1962   -0.2500    0.0000 C.2     1  UNL1        0.3097
      9 C           2.0000   -0.2500    0.0000 C.3     1  UNL1       -0.0653
     10 C           8.9282   -0.2500    0.0000 C.3     1  UNL1       -0.0525
     11 C           8.0622    1.2500    0.0000 C.3     1  UNL1       -0.0525
     12 H           3.3335   -0.7249    0.0000 H       1  UNL1        0.0266
     13 H           4.1306   -0.7249    0.0000 H       1  UNL1        0.0266
     14 H           4.9966    0.7249    0.0000 H       1  UNL1        0.0298
     15 H           4.1996    0.7249    0.0000 H       1  UNL1        0.0298
     16 H           3.2646    0.7249    0.0000 H       1  UNL1        0.0263
     17 H           2.4675    0.7249    0.0000 H       1  UNL1        0.0263
     18 H           5.0656   -0.7249    0.0000 H       1  UNL1        0.0697
     19 H           5.8626   -0.7249    0.0000 H       1  UNL1        0.0697
     20 H           8.0622   -0.3700    0.0000 H       1  UNL1        0.0408
     21 H           1.6900    0.2869    0.0000 H       1  UNL1        0.0230
     22 H           1.4631   -0.5600    0.0000 H       1  UNL1        0.0230
     23 H           2.3100   -0.7869    0.0000 H       1  UNL1        0.0230
     24 H           8.6182   -0.7869    0.0000 H       1  UNL1        0.0237
     25 H           9.4651   -0.5600    0.0000 H       1  UNL1        0.0237
     26 H           9.2382    0.2869    0.0000 H       1  UNL1        0.0237
     27 H           8.6822    1.2500    0.0000 H       1  UNL1        0.0237
     28 H           8.0622    1.8700    0.0000 H       1  UNL1        0.0237
     29 H           7.4422    1.2500    0.0000 H       1  UNL1        0.0237
@<TRIPOS>BOND
     1     1     6    1
     2     1     8    1
     3     2     8    2
     4     3     4    1
     5     3     5    1
     6     3    12    1
     7     3    13    1
     8     4     6    1
     9     4    14    1
    10     4    15    1
    11     5     9    1
    12     5    16    1
    13     5    17    1
    14     6    18    1
    15     6    19    1
    16     7     8    1
    17     7    10    1
    18     7    11    1
    19     7    20    1
    20     9    21    1
    21     9    22    1
    22     9    23    1
    23    10    24    1
    24    10    25    1
    25    10    26    1
    26    11    27    1
    27    11    28    1
    28    11    29    1
