@<TRIPOS>MOLECULE
IMPHY000479
 45 49 0 0 0
SMALL
GASTEIGER

@<TRIPOS>ATOM
      1 C           5.1961    2.8459    0.0000 C.3     1  UNL1        0.0031
      2 C           5.1961    3.8435    0.0000 C.3     1  UNL1        0.0001
      3 C           4.3296    2.3470    0.0000 C.3     1  UNL1        0.0419
      4 C           6.1458    2.5357    0.0000 C.3     1  UNL1        0.0001
      5 C           5.1961    1.8450    0.0000 C.3     1  UNL1        0.0001
      6 C           6.1458    4.1537    0.0000 C.3     1  UNL1        0.0001
      7 C           4.3296    4.3455    0.0000 C.3     1  UNL1        0.0004
      8 C           5.1961    4.8444    0.0000 C.3     1  UNL1        0.0000
      9 C           3.4630    2.8459    0.0000 C.3     1  UNL1        0.0645
     10 C           4.3296    1.3462    0.0000 C.3     1  UNL1        0.1737
     11 C           6.7310    3.3447    0.0000 C.3     1  UNL1        0.0000
     12 C           6.4528    5.1034    0.0000 C.3     1  UNL1        0.0028
     13 C           3.4630    3.8435    0.0000 C.3     1  UNL1        0.0078
     14 C           2.5965    2.3470    0.0000 C.3     1  UNL1        0.0252
     15 C           2.7563    3.5493    0.0000 C.2     1  UNL1        0.2069
     16 C           3.4630    0.8442    0.0000 C.2     1  UNL1       -0.0023
     17 O           5.1961    0.8442    0.0000 O.3     1  UNL1       -0.2183
     18 C           7.4312    5.3144    0.0000 C.3     1  UNL1        0.0342
     19 C           5.7845    5.8484    0.0000 C.3     1  UNL1        0.0001
     20 C           2.5965    1.3462    0.0000 C.2     1  UNL1       -0.0442
     21 C           1.7299    2.8459    0.0000 C.3     1  UNL1        0.0071
     22 O           2.7563    4.5502    0.0000 O.2     1  UNL1       -0.2883
     23 C           8.1027    4.5694    0.0000 C.3     1  UNL1        0.1392
     24 C           1.7299    0.8442    0.0000 C.3     1  UNL1        0.0431
     25 C           0.8634    2.3470    0.0000 C.3     1  UNL1        0.0335
     26 O           7.8437    3.6037    0.0000 O.3     1  UNL1       -0.3266
     27 C           9.0812    4.7772    0.0000 C.2     1  UNL1       -0.0055
     28 C           0.8634    1.3462    0.0000 C.3     1  UNL1        0.1553
     29 C           1.0232    0.1375    0.0000 C.3     1  UNL1        0.0066
     30 C           2.4366    0.1375    0.0000 C.3     1  UNL1        0.0066
     31 C           8.5504    2.8938    0.0000 C.3     1  UNL1        0.2697
     32 C           9.3882    5.7301    0.0000 C.2     1  UNL1       -0.0455
     33 O           0.0000    0.8442    0.0000 O.3     1  UNL1       -0.2228
     34 C           9.5161    3.1560    0.0000 C.3     1  UNL1        0.2406
     35 O           8.2914    1.9314    0.0000 O.3     1  UNL1       -0.3256
     36 C           8.7199    6.4720    0.0000 C.3     1  UNL1        0.0261
     37 C          10.3666    5.9348    0.0000 C.3     1  UNL1        0.0261
     38 C          10.2227    2.4494    0.0000 C.3     1  UNL1        0.2198
     39 O           9.7751    4.1217    0.0000 O.3     1  UNL1       -0.2149
     40 C           8.9981    1.2247    0.0000 C.3     1  UNL1        0.1835
     41 C           9.9637    1.4837    0.0000 C.3     1  UNL1        0.2144
     42 O          11.1916    2.7084    0.0000 O.3     1  UNL1       -0.2174
     43 C           8.7423    0.2590    0.0000 C.3     1  UNL1        0.2142
     44 O          10.6704    0.7770    0.0000 O.3     1  UNL1       -0.2176
     45 O           7.7734    0.0000    0.0000 O.3     1  UNL1       -0.2176
@<TRIPOS>BOND
     1     1     2    1
     2     1     4    1
     3     1     5    1
     4     2     6    1
     5     2     7    1
     6     2     8    1
     7     3     1    1
     8     3     9    1
     9     3    10    1
    10     4    11    1
    11     6    11    1
    12     6    12    1
    13     7    13    1
    14     9    13    1
    15     9    14    1
    16     9    15    1
    17    10    16    1
    18    10    17    1
    19    12    18    1
    20    12    19    1
    21    14    20    1
    22    14    21    1
    23    15    22    2
    24    16    20    2
    25    18    23    1
    26    20    24    1
    27    21    25    1
    28    23    26    1
    29    23    27    1
    30    24    28    1
    31    24    29    1
    32    24    30    1
    33    25    28    1
    34    27    32    2
    35    28    33    1
    36    31    26    1
    37    31    34    1
    38    31    35    1
    39    32    36    1
    40    32    37    1
    41    34    38    1
    42    34    39    1
    43    35    40    1
    44    38    41    1
    45    38    42    1
    46    40    41    1
    47    40    43    1
    48    41    44    1
    49    43    45    1
