@<TRIPOS>MOLECULE
IMPHY004666
 45 45 0 0 0
SMALL
GASTEIGER

@<TRIPOS>ATOM
      1 C           2.8660   -0.7500    0.0000 C.3     1  UNL1       -0.0384
      2 C           2.8660    0.2500    0.0000 C.3     1  UNL1       -0.0410
      3 C           2.0000   -1.2500    0.0000 C.3     1  UNL1       -0.0497
      4 C           3.7320   -1.2500    0.0000 C.3     1  UNL1       -0.0497
      5 C           2.8660   -2.7500    0.0000 C.3     1  UNL1       -0.0439
      6 C           2.0000   -2.2500    0.0000 C.3     1  UNL1       -0.0502
      7 C           3.7320   -2.2500    0.0000 C.3     1  UNL1       -0.0502
      8 C           3.7320    0.7500    0.0000 C.3     1  UNL1       -0.0502
      9 C           2.0000    0.7500    0.0000 C.3     1  UNL1       -0.0622
     10 C           3.7320    1.7500    0.0000 C.3     1  UNL1       -0.0526
     11 C           2.8660   -3.7500    0.0000 C.3     1  UNL1       -0.0624
     12 C           4.5981    2.2500    0.0000 C.3     1  UNL1       -0.0507
     13 C           4.5981    3.2500    0.0000 C.3     1  UNL1       -0.0467
     14 C           5.4641    3.7500    0.0000 C.3     1  UNL1       -0.0627
     15 C           3.7320    3.7500    0.0000 C.3     1  UNL1       -0.0627
     16 H           3.4030   -0.4400    0.0000 H       1  UNL1        0.0303
     17 H           2.8660    1.1000    0.0000 H       1  UNL1        0.0301
     18 H           1.7880   -0.6674    0.0000 H       1  UNL1        0.0268
     19 H           1.3894   -1.3577    0.0000 H       1  UNL1        0.0268
     20 H           4.3426   -1.3577    0.0000 H       1  UNL1        0.0268
     21 H           3.9441   -0.6674    0.0000 H       1  UNL1        0.0268
     22 H           3.4030   -3.0600    0.0000 H       1  UNL1        0.0298
     23 H           1.3894   -2.1423    0.0000 H       1  UNL1        0.0268
     24 H           1.7880   -2.8326    0.0000 H       1  UNL1        0.0268
     25 H           3.9441   -2.8326    0.0000 H       1  UNL1        0.0268
     26 H           4.3426   -2.1423    0.0000 H       1  UNL1        0.0268
     27 H           3.9441    0.1674    0.0000 H       1  UNL1        0.0268
     28 H           4.3426    0.8577    0.0000 H       1  UNL1        0.0268
     29 H           2.3100    1.2869    0.0000 H       1  UNL1        0.0233
     30 H           1.4631    1.0600    0.0000 H       1  UNL1        0.0233
     31 H           1.6900    0.2131    0.0000 H       1  UNL1        0.0233
     32 H           3.5200    2.3326    0.0000 H       1  UNL1        0.0265
     33 H           3.1215    1.6423    0.0000 H       1  UNL1        0.0265
     34 H           2.2460   -3.7500    0.0000 H       1  UNL1        0.0232
     35 H           2.8660   -4.3700    0.0000 H       1  UNL1        0.0232
     36 H           3.4860   -3.7500    0.0000 H       1  UNL1        0.0232
     37 H           4.8101    1.6674    0.0000 H       1  UNL1        0.0268
     38 H           5.2087    2.3577    0.0000 H       1  UNL1        0.0268
     39 H           4.5981    3.8700    0.0000 H       1  UNL1        0.0295
     40 H           4.0420    4.2869    0.0000 H       1  UNL1        0.0232
     41 H           3.1951    4.0600    0.0000 H       1  UNL1        0.0232
     42 H           3.4220    3.2131    0.0000 H       1  UNL1        0.0232
     43 H           5.7741    3.2131    0.0000 H       1  UNL1        0.0232
     44 H           6.0010    4.0600    0.0000 H       1  UNL1        0.0232
     45 H           5.1541    4.2869    0.0000 H       1  UNL1        0.0232
@<TRIPOS>BOND
     1     1     2    1
     2     1     3    1
     3     1     4    1
     4     1    16    1
     5     2     8    1
     6     2     9    1
     7     2    17    1
     8     3     6    1
     9     3    18    1
    10     3    19    1
    11     4     7    1
    12     4    20    1
    13     4    21    1
    14     5     6    1
    15     5     7    1
    16     5    11    1
    17     5    22    1
    18     6    23    1
    19     6    24    1
    20     7    25    1
    21     7    26    1
    22     8    10    1
    23     8    27    1
    24     8    28    1
    25     9    29    1
    26     9    30    1
    27     9    31    1
    28    10    12    1
    29    10    32    1
    30    10    33    1
    31    11    34    1
    32    11    35    1
    33    11    36    1
    34    12    13    1
    35    12    37    1
    36    12    38    1
    37    13    14    1
    38    13    15    1
    39    13    39    1
    40    14    43    1
    41    14    44    1
    42    14    45    1
    43    15    40    1
    44    15    41    1
    45    15    42    1
