@<TRIPOS>MOLECULE
IMPHY007345
 34 36 0 0 0
SMALL
GASTEIGER

@<TRIPOS>ATOM
      1 O           5.5301   -1.5479    0.0000 O.2     1  UNL1       -0.4618
      2 O           2.0000   -1.5721    0.0000 O.3     1  UNL1       -0.4949
      3 O           3.7817    1.4867    0.0000 O.3     1  UNL1       -0.5058
      4 O           5.5301    1.4521    0.0000 O.2     1  UNL1       -0.2863
      5 O           9.8602   -0.0479    0.0000 O.3     1  UNL1       -0.5033
      6 O           9.8602    1.9521    0.0000 O.3     1  UNL1       -0.5033
      7 C           4.6641   -0.0479    0.0000 C.ar    1  UNL1        0.1060
      8 C           6.3961   -0.0479    0.0000 C.ar    1  UNL1        0.0645
      9 C           4.6641   -1.0479    0.0000 C.ar    1  UNL1        0.1454
     10 C           5.5301    0.4521    0.0000 C.ar    1  UNL1        0.2037
     11 C           7.2622    0.4521    0.0000 C.ar    1  UNL1       -0.0076
     12 C           3.7702    0.4867    0.0000 C.ar    1  UNL1        0.1347
     13 C           3.7702   -1.5826    0.0000 C.ar    1  UNL1        0.0233
     14 C           6.3961   -1.0479    0.0000 C.ar    1  UNL1        0.1038
     15 C           2.8641   -1.0687    0.0000 C.ar    1  UNL1        0.1271
     16 C           2.8641   -0.0271    0.0000 C.ar    1  UNL1        0.0225
     17 C           8.1282   -0.0479    0.0000 C.ar    1  UNL1       -0.0086
     18 C           7.2622    1.4521    0.0000 C.ar    1  UNL1       -0.0501
     19 C           8.9942    0.4521    0.0000 C.ar    1  UNL1        0.1588
     20 C           8.1282    1.9521    0.0000 C.ar    1  UNL1       -0.0160
     21 C           8.9942    1.4521    0.0000 C.ar    1  UNL1        0.1582
     22 C           2.0038   -2.5721    0.0000 C.3     1  UNL1        0.0788
     23 H           3.7773   -2.2026    0.0000 H       1  UNL1        0.0691
     24 H           6.9331   -1.3579    0.0000 H       1  UNL1        0.1037
     25 H           2.3284    0.2850    0.0000 H       1  UNL1        0.0691
     26 H           8.1282   -0.6679    0.0000 H       1  UNL1        0.0661
     27 H           6.7252    1.7621    0.0000 H       1  UNL1        0.0625
     28 H           8.1282    2.5721    0.0000 H       1  UNL1        0.0655
     29 H           3.2484    1.8028    0.0000 H       1  UNL1        0.2922
     30 H           1.3839   -2.5745    0.0000 H       1  UNL1        0.0660
     31 H           2.0062   -3.1921    0.0000 H       1  UNL1        0.0660
     32 H           2.6238   -2.5697    0.0000 H       1  UNL1        0.0660
     33 H           9.8602   -0.6679    0.0000 H       1  UNL1        0.2923
     34 H           9.8602    2.5721    0.0000 H       1  UNL1        0.2923
@<TRIPOS>BOND
     1     1     9   ar
     2     1    14   ar
     3     2    15    1
     4     2    22    1
     5     3    12    1
     6     3    29    1
     7     4    10    2
     8     5    19    1
     9     5    33    1
    10     6    21    1
    11     6    34    1
    12     7     9   ar
    13     7    10   ar
    14     7    12   ar
    15     8    10   ar
    16     8    11    1
    17     8    14   ar
    18     9    13   ar
    19    11    17   ar
    20    11    18   ar
    21    12    16   ar
    22    13    15   ar
    23    13    23    1
    24    14    24    1
    25    15    16   ar
    26    16    25    1
    27    17    19   ar
    28    17    26    1
    29    18    20   ar
    30    18    27    1
    31    19    21   ar
    32    20    21   ar
    33    20    28    1
    34    22    30    1
    35    22    31    1
    36    22    32    1
