@<TRIPOS>MOLECULE
IMPHY007984
 57 60 0 0 0
SMALL
GASTEIGER

@<TRIPOS>ATOM
      1 O          10.4366    1.3606    0.0000 O.3     1  UNL1       -0.4811
      2 O          12.1246   -2.6463    0.0000 O.3     1  UNL1       -0.3891
      3 O           6.9006    1.3884    0.0000 O.2     1  UNL1       -0.4613
      4 O           8.6605   -1.6463    0.0000 O.3     1  UNL1       -0.5055
      5 O           6.9121   -1.6809    0.0000 O.2     1  UNL1       -0.2863
      6 O           2.5381   -2.1804    0.0000 O.3     1  UNL1       -0.5068
      7 C          10.3926   -0.6463    0.0000 C.3     1  UNL1       -0.0181
      8 C           9.5266   -0.1463    0.0000 C.ar    1  UNL1        0.0373
      9 C          10.3926   -1.6463    0.0000 C.3     1  UNL1       -0.0203
     10 C          11.2586   -2.1463    0.0000 C.3     1  UNL1        0.0608
     11 C           9.5266    0.8537    0.0000 C.ar    1  UNL1        0.1390
     12 C          10.4446    2.4022    0.0000 C.3     1  UNL1        0.1235
     13 C           8.6605    1.3537    0.0000 C.ar    1  UNL1        0.0599
     14 C           8.6605   -0.6463    0.0000 C.ar    1  UNL1        0.1379
     15 C           7.7945    0.8537    0.0000 C.ar    1  UNL1        0.1526
     16 C           7.7945   -0.1463    0.0000 C.ar    1  UNL1        0.1069
     17 C           9.5425    2.9230    0.0000 C.2     1  UNL1       -0.0408
     18 C           8.6445    2.3952    0.0000 C.2     1  UNL1       -0.0478
     19 C          10.7586   -3.0123    0.0000 C.3     1  UNL1       -0.0363
     20 C          11.7586   -1.2802    0.0000 C.3     1  UNL1       -0.0363
     21 C          10.9479    3.2663    0.0000 C.3     1  UNL1       -0.0215
     22 C          11.4446    2.3983    0.0000 C.3     1  UNL1       -0.0215
     23 C           6.9006   -0.6809    0.0000 C.ar    1  UNL1        0.2037
     24 C           5.9945   -0.1671    0.0000 C.ar    1  UNL1        0.0644
     25 C           5.9945    0.8745    0.0000 C.ar    1  UNL1        0.1039
     26 C           5.1304   -0.6704    0.0000 C.ar    1  UNL1       -0.0110
     27 C           4.2625   -0.1738    0.0000 C.ar    1  UNL1       -0.0504
     28 C           5.1343   -1.6704    0.0000 C.ar    1  UNL1       -0.0504
     29 C           3.3984   -0.6771    0.0000 C.ar    1  UNL1       -0.0196
     30 C           4.2702   -2.1738    0.0000 C.ar    1  UNL1       -0.0196
     31 C           3.4022   -1.6771    0.0000 C.ar    1  UNL1        0.1169
     32 H          11.0032   -0.7539    0.0000 H       1  UNL1        0.0316
     33 H          10.6046   -0.0637    0.0000 H       1  UNL1        0.0316
     34 H           9.7820   -1.5386    0.0000 H       1  UNL1        0.0296
     35 H          10.1805   -2.2289    0.0000 H       1  UNL1        0.0296
     36 H           9.5401    3.5430    0.0000 H       1  UNL1        0.0611
     37 H           8.1040    2.6990    0.0000 H       1  UNL1        0.0624
     38 H          10.2217   -2.7023    0.0000 H       1  UNL1        0.0257
     39 H          10.4486   -3.5492    0.0000 H       1  UNL1        0.0257
     40 H          11.2955   -3.3223    0.0000 H       1  UNL1        0.0257
     41 H          12.2955   -1.5902    0.0000 H       1  UNL1        0.0257
     42 H          12.0686   -0.7433    0.0000 H       1  UNL1        0.0257
     43 H          11.2217   -0.9702    0.0000 H       1  UNL1        0.0257
     44 H          11.4837    2.9542    0.0000 H       1  UNL1        0.0271
     45 H          11.4422    1.7783    0.0000 H       1  UNL1        0.0271
     46 H          12.0646    2.3959    0.0000 H       1  UNL1        0.0271
     47 H          11.4470    3.0183    0.0000 H       1  UNL1        0.0271
     48 H          11.2600    3.8020    0.0000 H       1  UNL1        0.0271
     49 H          10.4122    3.5783    0.0000 H       1  UNL1        0.0271
     50 H          12.1246   -3.2663    0.0000 H       1  UNL1        0.2101
     51 H           5.4588    1.1866    0.0000 H       1  UNL1        0.1037
     52 H           9.1975   -1.9563    0.0000 H       1  UNL1        0.2922
     53 H           4.2601    0.4462    0.0000 H       1  UNL1        0.0625
     54 H           5.6724   -1.9783    0.0000 H       1  UNL1        0.0625
     55 H           2.8602   -0.3692    0.0000 H       1  UNL1        0.0654
     56 H           4.2726   -2.7937    0.0000 H       1  UNL1        0.0654
     57 H           2.0000   -1.8725    0.0000 H       1  UNL1        0.2921
@<TRIPOS>BOND
     1     1    11    1
     2     1    12    1
     3     2    10    1
     4     2    50    1
     5     3    15   ar
     6     3    25   ar
     7     4    14    1
     8     4    52    1
     9     5    23    2
    10     6    31    1
    11     6    57    1
    12     7     8    1
    13     7     9    1
    14     7    32    1
    15     7    33    1
    16     8    11   ar
    17     8    14   ar
    18     9    10    1
    19     9    34    1
    20     9    35    1
    21    10    19    1
    22    10    20    1
    23    11    13   ar
    24    12    17    1
    25    12    21    1
    26    12    22    1
    27    13    15   ar
    28    13    18    1
    29    14    16   ar
    30    15    16   ar
    31    16    23   ar
    32    17    18    2
    33    17    36    1
    34    18    37    1
    35    19    38    1
    36    19    39    1
    37    19    40    1
    38    20    41    1
    39    20    42    1
    40    20    43    1
    41    21    44    1
    42    21    48    1
    43    21    49    1
    44    22    45    1
    45    22    46    1
    46    22    47    1
    47    23    24   ar
    48    24    25   ar
    49    24    26    1
    50    25    51    1
    51    26    27   ar
    52    26    28   ar
    53    27    29   ar
    54    27    53    1
    55    28    30   ar
    56    28    54    1
    57    29    31   ar
    58    29    55    1
    59    30    31   ar
    60    30    56    1
