@<TRIPOS>MOLECULE
IMPHY011041
 22 22 0 0 0
SMALL
GASTEIGER

@<TRIPOS>ATOM
      1 O           2.0000   -1.4400    0.0000 O.3     1  UNL1       -0.5068
      2 C           3.7320    1.5600    0.0000 C.3     1  UNL1       -0.0214
      3 C           3.7320    0.5600    0.0000 C.ar    1  UNL1       -0.0413
      4 C           4.5981    2.0600    0.0000 C.3     1  UNL1       -0.0586
      5 C           2.8660    2.0600    0.0000 C.3     1  UNL1       -0.0586
      6 C           2.8660    0.0600    0.0000 C.ar    1  UNL1       -0.0168
      7 C           4.5981    0.0600    0.0000 C.ar    1  UNL1       -0.0581
      8 C           2.8660   -0.9400    0.0000 C.ar    1  UNL1        0.1171
      9 C           4.5981   -0.9400    0.0000 C.ar    1  UNL1       -0.0580
     10 C           3.7320   -1.4400    0.0000 C.ar    1  UNL1       -0.0202
     11 H           3.7320    2.1800    0.0000 H       1  UNL1        0.0343
     12 H           4.9081    1.5231    0.0000 H       1  UNL1        0.0235
     13 H           5.1350    2.3700    0.0000 H       1  UNL1        0.0235
     14 H           4.2881    2.5969    0.0000 H       1  UNL1        0.0235
     15 H           3.1760    2.5969    0.0000 H       1  UNL1        0.0235
     16 H           2.3291    2.3700    0.0000 H       1  UNL1        0.0235
     17 H           2.5560    1.5231    0.0000 H       1  UNL1        0.0235
     18 H           2.3291    0.3700    0.0000 H       1  UNL1        0.0657
     19 H           5.1350    0.3700    0.0000 H       1  UNL1        0.0620
     20 H           5.1350   -1.2500    0.0000 H       1  UNL1        0.0619
     21 H           3.7320   -2.0600    0.0000 H       1  UNL1        0.0654
     22 H           2.0000   -2.0600    0.0000 H       1  UNL1        0.2921
@<TRIPOS>BOND
     1     1     8    1
     2     1    22    1
     3     2     3    1
     4     2     4    1
     5     2     5    1
     6     2    11    1
     7     3     6   ar
     8     3     7   ar
     9     4    12    1
    10     4    13    1
    11     4    14    1
    12     5    15    1
    13     5    16    1
    14     5    17    1
    15     6     8   ar
    16     6    18    1
    17     7     9   ar
    18     7    19    1
    19     8    10   ar
    20     9    10   ar
    21     9    20    1
    22    10    21    1
