@<TRIPOS>MOLECULE
IMPHY014558
 62 63 0 0 0
SMALL
GASTEIGER

@<TRIPOS>ATOM
      1 O           2.8658    2.2504    0.0000 O.3     1  UNL1       -0.3612
      2 O           3.9554    0.4839    0.0000 O.3     1  UNL1       -0.4584
      3 O           7.1962    1.7500    0.0000 O.3     1  UNL1       -0.3874
      4 O           7.1962   -0.2500    0.0000 O.3     1  UNL1       -0.4510
      5 O           3.3633   -1.1439    0.0000 O.2     1  UNL1       -0.2512
      6 O           6.3301   -1.7500    0.0000 O.2     1  UNL1       -0.2453
      7 C           2.8660    1.2500    0.0000 C.3     1  UNL1        0.0971
      8 C           3.7320    1.7500    0.0000 C.3     1  UNL1        0.1252
      9 C           4.5981    1.2500    0.0000 C.3     1  UNL1        0.1372
     10 C           5.4641    1.7500    0.0000 C.3     1  UNL1        0.0308
     11 C           2.8660    0.2500    0.0000 C.3     1  UNL1       -0.0180
     12 C           2.0000    0.7500    0.0000 C.3     1  UNL1       -0.0332
     13 C           6.3301    1.2500    0.0000 C.3     1  UNL1        0.1024
     14 C           5.4641    2.7500    0.0000 C.3     1  UNL1       -0.0379
     15 C           3.7320   -0.2500    0.0000 C.3     1  UNL1       -0.0317
     16 C           6.3301    0.2500    0.0000 C.3     1  UNL1        0.1503
     17 C           5.4641   -0.2500    0.0000 C.2     1  UNL1       -0.0341
     18 C           4.5981    0.2500    0.0000 C.2     1  UNL1       -0.0814
     19 C           6.3301    3.2500    0.0000 C.3     1  UNL1       -0.0622
     20 C           4.5981    3.2500    0.0000 C.3     1  UNL1       -0.0622
     21 C           4.1292   -0.5009    0.0000 C.2     1  UNL1        0.3043
     22 C           5.9642   -1.1160    0.0000 C.3     1  UNL1       -0.0403
     23 C           4.7722   -1.2668    0.0000 C.3     1  UNL1        0.0332
     24 C           7.1962   -1.2500    0.0000 C.2     1  UNL1        0.3352
     25 C           8.0622   -1.7500    0.0000 C.2     1  UNL1        0.0294
     26 C           8.9282   -1.2500    0.0000 C.3     1  UNL1       -0.0333
     27 C           8.0622   -2.7500    0.0000 C.2     1  UNL1       -0.0774
     28 C           8.9282   -3.2500    0.0000 C.3     1  UNL1       -0.0461
     29 H           4.1572    2.4861    0.0000 H       1  UNL1        0.0662
     30 H           4.9966    0.7751    0.0000 H       1  UNL1        0.0765
     31 H           6.0010    2.0600    0.0000 H       1  UNL1        0.0366
     32 H           2.2554    0.3577    0.0000 H       1  UNL1        0.0297
     33 H           2.6540   -0.3326    0.0000 H       1  UNL1        0.0297
     34 H           1.6900    1.2869    0.0000 H       1  UNL1        0.0258
     35 H           1.4631    0.4400    0.0000 H       1  UNL1        0.0258
     36 H           2.3100    0.2131    0.0000 H       1  UNL1        0.0258
     37 H           6.8671    0.9400    0.0000 H       1  UNL1        0.0638
     38 H           5.4641    3.3700    0.0000 H       1  UNL1        0.0300
     39 H           3.3335   -0.7249    0.0000 H       1  UNL1        0.0308
     40 H           4.1306   -0.7249    0.0000 H       1  UNL1        0.0308
     41 H           6.3301   -0.3700    0.0000 H       1  UNL1        0.0808
     42 H           4.9966    0.7249    0.0000 H       1  UNL1        0.0573
     43 H           6.6401    2.7131    0.0000 H       1  UNL1        0.0232
     44 H           6.8671    3.5600    0.0000 H       1  UNL1        0.0232
     45 H           6.0201    3.7869    0.0000 H       1  UNL1        0.0232
     46 H           4.9081    3.7869    0.0000 H       1  UNL1        0.0232
     47 H           4.0611    3.5600    0.0000 H       1  UNL1        0.0232
     48 H           4.2881    2.7131    0.0000 H       1  UNL1        0.0232
     49 H           7.7331    1.4400    0.0000 H       1  UNL1        0.2100
     50 H           5.4273   -1.4260    0.0000 H       1  UNL1        0.0276
     51 H           6.2742   -1.6529    0.0000 H       1  UNL1        0.0276
     52 H           6.5011   -0.8059    0.0000 H       1  UNL1        0.0276
     53 H           4.2973   -1.6655    0.0000 H       1  UNL1        0.0342
     54 H           5.1708   -1.7417    0.0000 H       1  UNL1        0.0342
     55 H           5.2470   -0.8682    0.0000 H       1  UNL1        0.0342
     56 H           9.2382   -1.7869    0.0000 H       1  UNL1        0.0280
     57 H           9.4651   -0.9400    0.0000 H       1  UNL1        0.0280
     58 H           8.6182   -0.7131    0.0000 H       1  UNL1        0.0280
     59 H           7.5252   -3.0600    0.0000 H       1  UNL1        0.0574
     60 H           8.6182   -3.7869    0.0000 H       1  UNL1        0.0272
     61 H           9.4651   -3.5600    0.0000 H       1  UNL1        0.0272
     62 H           9.2382   -2.7131    0.0000 H       1  UNL1        0.0272
@<TRIPOS>BOND
     1     1     7    1
     2     1     8    1
     3     9     2    1
     4     2    21    1
     5    13     3    1
     6     3    49    1
     7    16     4    1
     8     4    24    1
     9     5    21    2
    10     6    24    2
    11     7     8    1
    12     7    11    1
    13     7    12    1
    14     8     9    1
    15     8    29    1
    16     9    10    1
    17     9    30    1
    18    10    13    1
    19    10    14    1
    20    10    31    1
    21    11    15    1
    22    11    32    1
    23    11    33    1
    24    12    34    1
    25    12    35    1
    26    12    36    1
    27    13    16    1
    28    13    37    1
    29    14    19    1
    30    14    20    1
    31    14    38    1
    32    15    18    1
    33    15    39    1
    34    15    40    1
    35    16    17    1
    36    16    41    1
    37    17    18    2
    38    17    22    1
    39    18    42    1
    40    19    43    1
    41    19    44    1
    42    19    45    1
    43    20    46    1
    44    20    47    1
    45    20    48    1
    46    21    23    1
    47    22    50    1
    48    22    51    1
    49    22    52    1
    50    23    53    1
    51    23    54    1
    52    23    55    1
    53    24    25    1
    54    25    26    1
    55    25    27    2
    56    26    56    1
    57    26    57    1
    58    26    58    1
    59    27    28    1
    60    27    59    1
    61    28    60    1
    62    28    61    1
    63    28    62    1
