@<TRIPOS>MOLECULE
IMPHY007975
 32 31 0 0 0
SMALL
GASTEIGER

@<TRIPOS>ATOM
      1 O           6.3301    0.7500    0.0000 O.3     1  UNL1       -0.4616
      2 O           7.1962   -0.7500    0.0000 O.2     1  UNL1       -0.2508
      3 C           4.5981    0.7500    0.0000 C.3     1  UNL1       -0.0159
      4 C           5.4641    0.2500    0.0000 C.3     1  UNL1        0.1003
      5 C           3.7320    0.2500    0.0000 C.3     1  UNL1       -0.0500
      6 C           2.8660    0.7500    0.0000 C.3     1  UNL1       -0.0558
      7 C           5.4641   -0.7500    0.0000 C.3     1  UNL1       -0.0277
      8 C           2.0000    0.2500    0.0000 C.3     1  UNL1       -0.0653
      9 C           8.0622    0.7500    0.0000 C.3     1  UNL1        0.0447
     10 C           7.1962    0.2500    0.0000 C.2     1  UNL1        0.3073
     11 C           8.9282    0.2500    0.0000 C.3     1  UNL1       -0.0458
     12 C           9.7942    0.7500    0.0000 C.3     1  UNL1       -0.0648
     13 H           4.9966    1.2250    0.0000 H       1  UNL1        0.0301
     14 H           4.1996    1.2250    0.0000 H       1  UNL1        0.0301
     15 H           5.4641    1.1000    0.0000 H       1  UNL1        0.0731
     16 H           3.3335   -0.2249    0.0000 H       1  UNL1        0.0266
     17 H           4.1306   -0.2249    0.0000 H       1  UNL1        0.0266
     18 H           3.2646    1.2250    0.0000 H       1  UNL1        0.0263
     19 H           2.4675    1.2250    0.0000 H       1  UNL1        0.0263
     20 H           4.8441   -0.7500    0.0000 H       1  UNL1        0.0265
     21 H           5.4641   -1.3700    0.0000 H       1  UNL1        0.0265
     22 H           6.0841   -0.7500    0.0000 H       1  UNL1        0.0265
     23 H           1.6900    0.7869    0.0000 H       1  UNL1        0.0230
     24 H           1.4631   -0.0600    0.0000 H       1  UNL1        0.0230
     25 H           2.3100   -0.2869    0.0000 H       1  UNL1        0.0230
     26 H           8.4607    1.2250    0.0000 H       1  UNL1        0.0377
     27 H           7.6636    1.2250    0.0000 H       1  UNL1        0.0377
     28 H           8.5297   -0.2249    0.0000 H       1  UNL1        0.0268
     29 H           9.3267   -0.2249    0.0000 H       1  UNL1        0.0268
     30 H          10.1042    0.2131    0.0000 H       1  UNL1        0.0230
     31 H          10.3312    1.0600    0.0000 H       1  UNL1        0.0230
     32 H           9.4842    1.2869    0.0000 H       1  UNL1        0.0230
@<TRIPOS>BOND
     1     1     4    1
     2     1    10    1
     3     2    10    2
     4     3     4    1
     5     3     5    1
     6     3    13    1
     7     3    14    1
     8     4     7    1
     9     4    15    1
    10     5     6    1
    11     5    16    1
    12     5    17    1
    13     6     8    1
    14     6    18    1
    15     6    19    1
    16     7    20    1
    17     7    21    1
    18     7    22    1
    19     8    23    1
    20     8    24    1
    21     8    25    1
    22     9    10    1
    23     9    11    1
    24     9    26    1
    25     9    27    1
    26    11    12    1
    27    11    28    1
    28    11    29    1
    29    12    30    1
    30    12    31    1
    31    12    32    1
