@<TRIPOS>MOLECULE
IMPHY004628
 52 54 0 0 0
SMALL
GASTEIGER

@<TRIPOS>ATOM
      1 O           5.1350   -0.1550    0.0000 O.3     1  UNL1       -0.3313
      2 O           6.8671   -0.1550    0.0000 O.2     1  UNL1       -0.4560
      3 O           5.1350   -3.1550    0.0000 O.3     1  UNL1       -0.3864
      4 O           3.4030   -2.1550    0.0000 O.3     1  UNL1       -0.3865
      5 O           6.8671   -2.1550    0.0000 O.3     1  UNL1       -0.3829
      6 O           2.5369   -0.6550    0.0000 O.3     1  UNL1       -0.3924
      7 O           5.1350    0.8450    0.0000 O.2     1  UNL1       -0.2799
      8 O           8.5991    2.8450    0.0000 O.2     1  UNL1       -0.5058
      9 O           5.1350    2.8450    0.0000 O.2     1  UNL1       -0.2836
     10 O           8.5991   -0.1550    0.0000 O.2     1  UNL1       -0.2870
     11 O          13.7953    2.8450    0.0000 O.3     1  UNL1       -0.5068
     12 C           5.1350   -2.1550    0.0000 C.3     1  UNL1        0.1152
     13 C           4.2690   -1.6550    0.0000 C.3     1  UNL1        0.1120
     14 C           6.0010   -1.6550    0.0000 C.3     1  UNL1        0.1454
     15 C           4.2690   -0.6550    0.0000 C.3     1  UNL1        0.1140
     16 C           6.0010   -0.6550    0.0000 C.3     1  UNL1        0.2310
     17 C           3.4030   -0.1550    0.0000 C.3     1  UNL1        0.0731
     18 C           6.8671    0.8450    0.0000 C.2     1  UNL1        0.1886
     19 C           7.7331    1.3450    0.0000 C.2     1  UNL1        0.1087
     20 C           6.0010    1.3450    0.0000 C.2     1  UNL1        0.2675
     21 C           7.7331    2.3450    0.0000 C.2     1  UNL1        0.1351
     22 C           6.0010    2.3450    0.0000 C.2     1  UNL1        0.2325
     23 C           8.5991    0.8450    0.0000 C.2     1  UNL1        0.1932
     24 C           6.8671    2.8450    0.0000 C.2     1  UNL1        0.0314
     25 C           9.4651    1.3450    0.0000 C.2     1  UNL1       -0.0135
     26 C          10.3312    0.8450    0.0000 C.2     1  UNL1       -0.0510
     27 C          11.1972    1.3450    0.0000 C.ar    1  UNL1       -0.0247
     28 C          12.0632    0.8450    0.0000 C.ar    1  UNL1       -0.0511
     29 C          11.1972    2.3450    0.0000 C.ar    1  UNL1       -0.0511
     30 C          12.9292    1.3450    0.0000 C.ar    1  UNL1       -0.0196
     31 C          12.0632    2.8450    0.0000 C.ar    1  UNL1       -0.0196
     32 C          12.9292    2.3450    0.0000 C.ar    1  UNL1        0.1169
     33 H           5.6720   -2.4650    0.0000 H       1  UNL1        0.0648
     34 H           4.2690   -2.2750    0.0000 H       1  UNL1        0.0647
     35 H           6.5380   -1.3450    0.0000 H       1  UNL1        0.0683
     36 H           4.2690   -0.0350    0.0000 H       1  UNL1        0.0647
     37 H           6.0010   -0.0350    0.0000 H       1  UNL1        0.1084
     38 H           3.8015    0.3199    0.0000 H       1  UNL1        0.0584
     39 H           3.0044    0.3199    0.0000 H       1  UNL1        0.0584
     40 H           4.5981   -3.4650    0.0000 H       1  UNL1        0.2100
     41 H           3.4030   -2.7750    0.0000 H       1  UNL1        0.2100
     42 H           6.8671   -2.7750    0.0000 H       1  UNL1        0.2102
     43 H           2.0000   -0.3450    0.0000 H       1  UNL1        0.2095
     44 H           6.8671    3.4650    0.0000 H       1  UNL1        0.0694
     45 H           9.4651    1.9650    0.0000 H       1  UNL1        0.0656
     46 H           8.5991    3.4650    0.0000 H       1  UNL1        0.2922
     47 H          10.3312    0.2250    0.0000 H       1  UNL1        0.0625
     48 H          12.0632    0.2250    0.0000 H       1  UNL1        0.0625
     49 H          10.6603    2.6550    0.0000 H       1  UNL1        0.0625
     50 H          13.4662    1.0350    0.0000 H       1  UNL1        0.0654
     51 H          12.0632    3.4650    0.0000 H       1  UNL1        0.0654
     52 H          14.3322    2.5350    0.0000 H       1  UNL1        0.2921
@<TRIPOS>BOND
     1     1    15    1
     2     1    16    1
     3    16     2    1
     4     2    18    1
     5    12     3    1
     6     3    40    1
     7    13     4    1
     8     4    41    1
     9    14     5    1
    10     5    42    1
    11     6    17    1
    12     6    43    1
    13     7    20    2
    14     8    21    1
    15     8    46    1
    16     9    22    2
    17    10    23    2
    18    11    32    1
    19    11    52    1
    20    12    13    1
    21    12    14    1
    22    12    33    1
    23    13    15    1
    24    13    34    1
    25    14    16    1
    26    14    35    1
    27    15    17    1
    28    15    36    1
    29    16    37    1
    30    17    38    1
    31    17    39    1
    32    18    19    2
    33    18    20    1
    34    19    21    1
    35    19    23    1
    36    20    22    1
    37    21    24    2
    38    22    24    1
    39    23    25    1
    40    24    44    1
    41    25    26    2
    42    25    45    1
    43    26    27    1
    44    26    47    1
    45    27    28   ar
    46    27    29   ar
    47    28    30   ar
    48    28    48    1
    49    29    31   ar
    50    29    49    1
    51    30    32   ar
    52    30    50    1
    53    31    32   ar
    54    31    51    1
