@<TRIPOS>MOLECULE
IMPHY007324
 80 84 0 0 0
SMALL
GASTEIGER

@<TRIPOS>ATOM
      1 O           2.5357   -1.9563    0.0000 O.3     1  UNL1       -0.3907
      2 O           5.3307    1.5961    0.0000 O.2     1  UNL1       -0.2923
      3 O           4.3500   -3.7342    0.0000 O.3     1  UNL1       -0.4802
      4 O           2.8467   -2.8739    0.0000 O.2     1  UNL1       -0.2503
      5 C           7.0628   -0.4039    0.0000 C.3     1  UNL1       -0.0127
      6 C           7.9288    0.0961    0.0000 C.3     1  UNL1       -0.0043
      7 C           5.2868   -0.4108    0.0000 C.3     1  UNL1       -0.0177
      8 C           6.1968    0.0961    0.0000 C.3     1  UNL1        0.0333
      9 C           5.2787   -1.4524    0.0000 C.3     1  UNL1       -0.0170
     10 C           7.0789   -1.4454    0.0000 C.3     1  UNL1       -0.0459
     11 C           8.8228    1.6307    0.0000 C.3     1  UNL1       -0.0108
     12 C           7.9288    1.0961    0.0000 C.2     1  UNL1       -0.0560
     13 C           9.7288    1.1169    0.0000 C.3     1  UNL1       -0.0252
     14 C           6.1808   -1.9732    0.0000 C.3     1  UNL1       -0.0481
     15 C           8.8228   -0.4386    0.0000 C.3     1  UNL1       -0.0429
     16 C           4.3433   -2.0021    0.0000 C.3     1  UNL1        0.0938
     17 C           4.3599    0.1533    0.0000 C.3     1  UNL1       -0.0443
     18 C           9.7288    0.0752    0.0000 C.3     1  UNL1       -0.0463
     19 C           6.1968    1.0961    0.0000 C.2     1  UNL1        0.1602
     20 C           7.7056   -1.1700    0.0000 C.3     1  UNL1       -0.0581
     21 C           8.7977    2.7154    0.0000 C.3     1  UNL1       -0.0343
     22 C           8.2709   -0.8436    0.0000 C.3     1  UNL1       -0.0553
     23 C           3.4037   -1.4596    0.0000 C.3     1  UNL1        0.0710
     24 C           5.2945    0.5892    0.0000 C.3     1  UNL1       -0.0586
     25 C           7.0628    1.5961    0.0000 C.2     1  UNL1       -0.0188
     26 C          10.6726    1.6521    0.0000 C.3     1  UNL1       -0.0468
     27 C           3.4120   -0.3747    0.0000 C.3     1  UNL1       -0.0253
     28 C           9.7288    3.2723    0.0000 C.3     1  UNL1       -0.0407
     29 C          10.6726    2.7371    0.0000 C.3     1  UNL1       -0.0497
     30 C          10.5987    0.6236    0.0000 C.3     1  UNL1       -0.0590
     31 C           4.8466   -2.8662    0.0000 C.3     1  UNL1       -0.0467
     32 C           3.8467   -2.8701    0.0000 C.2     1  UNL1        0.3135
     33 C           7.9222    3.1986    0.0000 C.3     1  UNL1       -0.0616
     34 C           9.7173    4.2723    0.0000 C.3     1  UNL1       -0.0622
     35 H           6.9329    0.5211    0.0000 H       1  UNL1        0.0392
     36 H           5.2820   -2.3024    0.0000 H       1  UNL1        0.0318
     37 H           7.2969   -2.0258    0.0000 H       1  UNL1        0.0271
     38 H           7.6880   -1.3300    0.0000 H       1  UNL1        0.0271
     39 H           8.0786    2.0415    0.0000 H       1  UNL1        0.0354
     40 H           5.7835   -2.4492    0.0000 H       1  UNL1        0.0269
     41 H           6.5818   -2.4461    0.0000 H       1  UNL1        0.0269
     42 H           8.4182   -0.9084    0.0000 H       1  UNL1        0.0274
     43 H           9.2164   -0.9176    0.0000 H       1  UNL1        0.0274
     44 H           4.7681    0.6199    0.0000 H       1  UNL1        0.0272
     45 H           3.9700    0.6353    0.0000 H       1  UNL1        0.0272
     46 H           9.9379   -0.5084    0.0000 H       1  UNL1        0.0271
     47 H          10.3397    0.1813    0.0000 H       1  UNL1        0.0271
     48 H           7.2306   -1.5685    0.0000 H       1  UNL1        0.0236
     49 H           8.1041   -1.6449    0.0000 H       1  UNL1        0.0236
     50 H           8.1805   -0.7715    0.0000 H       1  UNL1        0.0236
     51 H           8.2674    2.3941    0.0000 H       1  UNL1        0.0307
     52 H           7.6884   -1.0557    0.0000 H       1  UNL1        0.0238
     53 H           8.4830   -1.4262    0.0000 H       1  UNL1        0.0238
     54 H           8.8535   -0.6315    0.0000 H       1  UNL1        0.0238
     55 H           3.4025   -2.0796    0.0000 H       1  UNL1        0.0604
     56 H           5.9145    0.5844    0.0000 H       1  UNL1        0.0235
     57 H           5.2993    1.2092    0.0000 H       1  UNL1        0.0235
     58 H           4.6745    0.5940    0.0000 H       1  UNL1        0.0235
     59 H           7.0628    2.2161    0.0000 H       1  UNL1        0.0652
     60 H          10.8817    1.0684    0.0000 H       1  UNL1        0.0271
     61 H          11.2835    1.7582    0.0000 H       1  UNL1        0.0271
     62 H           3.2075    0.2106    0.0000 H       1  UNL1        0.0291
     63 H           2.8004   -0.4760    0.0000 H       1  UNL1        0.0291
     64 H          10.2628    3.5875    0.0000 H       1  UNL1        0.0301
     65 H          11.2835    2.6310    0.0000 H       1  UNL1        0.0268
     66 H          10.8817    3.3208    0.0000 H       1  UNL1        0.0268
     67 H          10.2928    0.0843    0.0000 H       1  UNL1        0.0235
     68 H          11.1380    0.3177    0.0000 H       1  UNL1        0.0235
     69 H          10.9045    1.1629    0.0000 H       1  UNL1        0.0235
     70 H           4.3109   -3.1783    0.0000 H       1  UNL1        0.0241
     71 H           5.1587   -3.4019    0.0000 H       1  UNL1        0.0241
     72 H           5.3824   -2.5541    0.0000 H       1  UNL1        0.0241
     73 H           8.2218    3.7414    0.0000 H       1  UNL1        0.0233
     74 H           7.3794    3.4982    0.0000 H       1  UNL1        0.0233
     75 H           7.6226    2.6558    0.0000 H       1  UNL1        0.0233
     76 H          10.3372    4.2794    0.0000 H       1  UNL1        0.0233
     77 H           9.7101    4.8922    0.0000 H       1  UNL1        0.0233
     78 H           9.0973    4.2651    0.0000 H       1  UNL1        0.0233
     79 H           2.0000   -1.6442    0.0000 H       1  UNL1        0.2098
     80 H           4.0421   -4.2723    0.0000 H       1  UNL1        0.2951
@<TRIPOS>BOND
     1    23     1    1
     2     1    79    1
     3     2    19    2
     4     3    32    1
     5     3    80    1
     6     4    32    2
     7     5     6    1
     8     5     8    1
     9     5    10    1
    10     5    20    1
    11     6    12    1
    12     6    15    1
    13     6    22    1
    14     7     8    1
    15     7     9    1
    16     7    17    1
    17     7    24    1
    18     8    19    1
    19     8    35    1
    20     9    14    1
    21     9    16    1
    22     9    36    1
    23    10    14    1
    24    10    37    1
    25    10    38    1
    26    11    12    1
    27    11    13    1
    28    11    21    1
    29    11    39    1
    30    12    25    2
    31    13    18    1
    32    13    26    1
    33    13    30    1
    34    14    40    1
    35    14    41    1
    36    15    18    1
    37    15    42    1
    38    15    43    1
    39    16    23    1
    40    16    31    1
    41    16    32    1
    42    17    27    1
    43    17    44    1
    44    17    45    1
    45    18    46    1
    46    18    47    1
    47    19    25    1
    48    20    48    1
    49    20    49    1
    50    20    50    1
    51    21    28    1
    52    21    33    1
    53    21    51    1
    54    22    52    1
    55    22    53    1
    56    22    54    1
    57    23    27    1
    58    23    55    1
    59    24    56    1
    60    24    57    1
    61    24    58    1
    62    25    59    1
    63    26    29    1
    64    26    60    1
    65    26    61    1
    66    27    62    1
    67    27    63    1
    68    28    29    1
    69    28    34    1
    70    28    64    1
    71    29    65    1
    72    29    66    1
    73    30    67    1
    74    30    68    1
    75    30    69    1
    76    31    70    1
    77    31    71    1
    78    31    72    1
    79    33    73    1
    80    33    74    1
    81    33    75    1
    82    34    76    1
    83    34    77    1
    84    34    78    1
