@<TRIPOS>MOLECULE
IMPHY004621
 44 45 0 0 0
SMALL
GASTEIGER

@<TRIPOS>ATOM
      1 O           3.7320   -0.3100    0.0000 O.3     1  UNL1       -0.5057
      2 O           5.4641   -3.3100    0.0000 O.3     1  UNL1       -0.5064
      3 O           4.5981    1.1900    0.0000 O.2     1  UNL1       -0.2872
      4 O           9.7942    4.1900    0.0000 O.3     1  UNL1       -0.5068
      5 C           4.5981   -1.8100    0.0000 C.ar    1  UNL1        0.0398
      6 C           3.7320   -2.3100    0.0000 C.3     1  UNL1       -0.0023
      7 C           4.5981   -0.8100    0.0000 C.ar    1  UNL1        0.1346
      8 C           5.4641   -0.3100    0.0000 C.ar    1  UNL1        0.0635
      9 C           5.4641   -2.3100    0.0000 C.ar    1  UNL1        0.1238
     10 C           3.7320   -3.3100    0.0000 C.2     1  UNL1       -0.0807
     11 C           6.3301   -0.8100    0.0000 C.ar    1  UNL1       -0.0440
     12 C           6.3301   -1.8100    0.0000 C.ar    1  UNL1       -0.0190
     13 C           2.8660   -3.8100    0.0000 C.2     1  UNL1       -0.0793
     14 C           5.4641    0.6900    0.0000 C.2     1  UNL1        0.1896
     15 C           2.8660   -4.8100    0.0000 C.3     1  UNL1       -0.0440
     16 C           2.0000   -3.3100    0.0000 C.3     1  UNL1       -0.0440
     17 C           6.3301    1.1900    0.0000 C.2     1  UNL1       -0.0137
     18 C           7.1962    2.6900    0.0000 C.ar    1  UNL1       -0.0247
     19 C           6.3301    2.1900    0.0000 C.2     1  UNL1       -0.0510
     20 C           8.0622    2.1900    0.0000 C.ar    1  UNL1       -0.0511
     21 C           7.1962    3.6900    0.0000 C.ar    1  UNL1       -0.0511
     22 C           8.9282    2.6900    0.0000 C.ar    1  UNL1       -0.0196
     23 C           8.0622    4.1900    0.0000 C.ar    1  UNL1       -0.0196
     24 C           8.9282    3.6900    0.0000 C.ar    1  UNL1        0.1169
     25 H           3.5200   -1.7274    0.0000 H       1  UNL1        0.0358
     26 H           3.1215   -2.4177    0.0000 H       1  UNL1        0.0358
     27 H           4.2690   -3.6200    0.0000 H       1  UNL1        0.0575
     28 H           6.8671   -0.5000    0.0000 H       1  UNL1        0.0627
     29 H           6.8671   -2.1200    0.0000 H       1  UNL1        0.0654
     30 H           2.2460   -4.8100    0.0000 H       1  UNL1        0.0274
     31 H           2.3100   -2.7731    0.0000 H       1  UNL1        0.0274
     32 H           1.4631   -3.0000    0.0000 H       1  UNL1        0.0274
     33 H           1.6900   -3.8469    0.0000 H       1  UNL1        0.0274
     34 H           2.8660   -5.4300    0.0000 H       1  UNL1        0.0274
     35 H           3.4860   -4.8100    0.0000 H       1  UNL1        0.0274
     36 H           6.8671    0.8800    0.0000 H       1  UNL1        0.0656
     37 H           3.1951   -0.6200    0.0000 H       1  UNL1        0.2922
     38 H           5.7932    2.5000    0.0000 H       1  UNL1        0.0625
     39 H           6.0010   -3.6200    0.0000 H       1  UNL1        0.2921
     40 H           8.0622    1.5700    0.0000 H       1  UNL1        0.0625
     41 H           6.6592    4.0000    0.0000 H       1  UNL1        0.0625
     42 H           9.4651    2.3800    0.0000 H       1  UNL1        0.0654
     43 H           8.0622    4.8100    0.0000 H       1  UNL1        0.0654
     44 H           9.7942    4.8100    0.0000 H       1  UNL1        0.2921
@<TRIPOS>BOND
     1     1     7    1
     2     1    37    1
     3     2     9    1
     4     2    39    1
     5     3    14    2
     6     4    24    1
     7     4    44    1
     8     5     6    1
     9     5     7   ar
    10     5     9   ar
    11     6    10    1
    12     6    25    1
    13     6    26    1
    14     7     8   ar
    15     8    11   ar
    16     8    14    1
    17     9    12   ar
    18    10    13    2
    19    10    27    1
    20    11    12   ar
    21    11    28    1
    22    12    29    1
    23    13    15    1
    24    13    16    1
    25    14    17    1
    26    15    30    1
    27    15    34    1
    28    15    35    1
    29    16    31    1
    30    16    32    1
    31    16    33    1
    32    17    19    2
    33    17    36    1
    34    18    19    1
    35    18    20   ar
    36    18    21   ar
    37    19    38    1
    38    20    22   ar
    39    20    40    1
    40    21    23   ar
    41    21    41    1
    42    22    24   ar
    43    22    42    1
    44    23    24   ar
    45    23    43    1
