@<TRIPOS>MOLECULE
IMPHY012411
 47 51 0 0 0
SMALL
GASTEIGER

@<TRIPOS>ATOM
      1 O           7.7276   -2.6297    0.0000 O.3     1  UNL1       -0.4519
      2 O           7.1762   -4.2024    0.0000 O.3     1  UNL1       -0.4526
      3 O           2.6205    1.8215    0.0000 O.3     1  UNL1       -0.4914
      4 O           3.8976    3.4230    0.0000 O.3     1  UNL1       -0.4914
      5 N           7.0546   -0.4046    0.0000 N.pl3   1  UNL1       -0.3318
      6 C           6.1536   -0.8385    0.0000 C.2     1  UNL1        0.0447
      7 C           5.2527   -0.4046    0.0000 C.2     1  UNL1       -0.0138
      8 C           4.5676   -1.1249    0.0000 C.3     1  UNL1        0.0007
      9 C           6.0176   -1.8232    0.0000 C.ar    1  UNL1        0.0452
     10 C           5.0394   -1.9999    0.0000 C.ar    1  UNL1       -0.0303
     11 C           5.0302    0.5703    0.0000 C.ar    1  UNL1       -0.0129
     12 C           7.2771    0.5703    0.0000 C.3     1  UNL1        0.0159
     13 C           6.6536    1.3521    0.0000 C.3     1  UNL1       -0.0112
     14 C           5.6536    1.3521    0.0000 C.ar    1  UNL1       -0.0347
     15 C           6.6986   -2.6033    0.0000 C.ar    1  UNL1        0.1754
     16 C           4.6743   -2.9689    0.0000 C.ar    1  UNL1       -0.0540
     17 C           3.9979    0.7096    0.0000 C.ar    1  UNL1       -0.0086
     18 C           6.3560   -3.5804    0.0000 C.ar    1  UNL1        0.1669
     19 C           7.8364   -1.0281    0.0000 C.3     1  UNL1        0.0007
     20 C           5.2881    2.3275    0.0000 C.ar    1  UNL1       -0.0125
     21 C           5.3370   -3.7644    0.0000 C.ar    1  UNL1       -0.0158
     22 C           3.6099    1.6763    0.0000 C.ar    1  UNL1        0.1621
     23 C           4.2593    2.4907    0.0000 C.ar    1  UNL1        0.1618
     24 C           8.0222   -3.6160    0.0000 C.3     1  UNL1        0.2333
     25 C           2.0000    1.0373    0.0000 C.3     1  UNL1        0.0790
     26 C           4.5241    4.2024    0.0000 C.3     1  UNL1        0.0790
     27 H           4.1657   -0.6528    0.0000 H       1  UNL1        0.0362
     28 H           4.0558   -1.4749    0.0000 H       1  UNL1        0.0362
     29 H           7.8357    0.3013    0.0000 H       1  UNL1        0.0467
     30 H           7.6637    1.0550    0.0000 H       1  UNL1        0.0467
     31 H           7.2122    1.6211    0.0000 H       1  UNL1        0.0329
     32 H           6.5157    1.9566    0.0000 H       1  UNL1        0.0329
     33 H           4.0629   -3.0720    0.0000 H       1  UNL1        0.0622
     34 H           3.6170    0.2205    0.0000 H       1  UNL1        0.0661
     35 H           7.4499   -1.5128    0.0000 H       1  UNL1        0.0428
     36 H           8.3212   -1.4147    0.0000 H       1  UNL1        0.0428
     37 H           8.2230   -0.5434    0.0000 H       1  UNL1        0.0428
     38 H           5.6802    2.8077    0.0000 H       1  UNL1        0.0658
     39 H           5.1251   -4.3471    0.0000 H       1  UNL1        0.0655
     40 H           8.3198   -4.1599    0.0000 H       1  UNL1        0.1166
     41 H           8.5943   -3.3771    0.0000 H       1  UNL1        0.1166
     42 H           1.5138    1.4220    0.0000 H       1  UNL1        0.0660
     43 H           1.6153    0.5511    0.0000 H       1  UNL1        0.0660
     44 H           2.4862    0.6526    0.0000 H       1  UNL1        0.0660
     45 H           5.0073    3.8140    0.0000 H       1  UNL1        0.0660
     46 H           4.9125    4.6856    0.0000 H       1  UNL1        0.0660
     47 H           4.0408    4.5908    0.0000 H       1  UNL1        0.0660
@<TRIPOS>BOND
     1     1    15    1
     2     1    24    1
     3     2    18    1
     4     2    24    1
     5     3    22    1
     6     3    25    1
     7     4    23    1
     8     4    26    1
     9     5     6    1
    10     5    12    1
    11     5    19    1
    12     6     7    2
    13     6     9    1
    14     7     8    1
    15     7    11    1
    16     8    10    1
    17     8    27    1
    18     8    28    1
    19     9    10   ar
    20     9    15   ar
    21    10    16   ar
    22    11    14   ar
    23    11    17   ar
    24    12    13    1
    25    12    29    1
    26    12    30    1
    27    13    14    1
    28    13    31    1
    29    13    32    1
    30    14    20   ar
    31    15    18   ar
    32    16    21   ar
    33    16    33    1
    34    17    22   ar
    35    17    34    1
    36    18    21   ar
    37    19    35    1
    38    19    36    1
    39    19    37    1
    40    20    23   ar
    41    20    38    1
    42    21    39    1
    43    22    23   ar
    44    24    40    1
    45    24    41    1
    46    25    42    1
    47    25    43    1
    48    25    44    1
    49    26    45    1
    50    26    46    1
    51    26    47    1
