@<TRIPOS>MOLECULE
IMPHY009331
 39 44 0 0 0
SMALL
GASTEIGER

@<TRIPOS>ATOM
      1 O           2.0000    3.5753    0.0000 O.3     1  UNL1       -0.4526
      2 O           3.4519    4.4135    0.0000 O.3     1  UNL1       -0.4526
      3 O           6.3417   -3.5326    0.0000 O.3     1  UNL1       -0.4526
      4 O           4.8362   -4.4174    0.0000 O.3     1  UNL1       -0.4526
      5 O           6.2838    1.8320    0.0000 O.2     1  UNL1       -0.2670
      6 N           5.4178    0.3320    0.0000 N.ar    1  UNL1       -0.3101
      7 C           4.5518   -0.1680    0.0000 C.ar    1  UNL1        0.0601
      8 C           3.6857    0.3320    0.0000 C.ar    1  UNL1        0.0072
      9 C           3.6857    1.3320    0.0000 C.ar    1  UNL1        0.0001
     10 C           4.5678   -1.2095    0.0000 C.ar    1  UNL1        0.0100
     11 C           4.5518    1.8320    0.0000 C.ar    1  UNL1        0.0509
     12 C           3.6698   -1.7372    0.0000 C.ar    1  UNL1       -0.0122
     13 C           5.4178    1.3320    0.0000 C.ar    1  UNL1        0.2594
     14 C           2.7757   -0.1748    0.0000 C.ar    1  UNL1       -0.0514
     15 C           2.7757    1.8388    0.0000 C.ar    1  UNL1       -0.0076
     16 C           2.7677   -1.2164    0.0000 C.ar    1  UNL1       -0.0532
     17 C           5.5197   -1.7301    0.0000 C.ar    1  UNL1       -0.0064
     18 C           4.5678    2.8735    0.0000 C.ar    1  UNL1       -0.0032
     19 C           2.7677    2.8804    0.0000 C.ar    1  UNL1        0.1668
     20 C           3.6614   -2.8222    0.0000 C.ar    1  UNL1       -0.0084
     21 C           3.6698    3.4013    0.0000 C.ar    1  UNL1        0.1670
     22 C           5.5365   -2.8150    0.0000 C.ar    1  UNL1        0.1669
     23 C           4.6010   -3.3647    0.0000 C.ar    1  UNL1        0.1668
     24 C           6.2838   -0.1680    0.0000 C.3     1  UNL1        0.0153
     25 C           2.4220    4.5209    0.0000 C.3     1  UNL1        0.2332
     26 C           5.9097   -4.5209    0.0000 C.3     1  UNL1        0.2332
     27 H           2.2424    0.1414    0.0000 H       1  UNL1        0.0624
     28 H           2.2424    1.5227    0.0000 H       1  UNL1        0.0662
     29 H           6.0506   -1.4098    0.0000 H       1  UNL1        0.0662
     30 H           2.2296   -1.5244    0.0000 H       1  UNL1        0.0624
     31 H           5.1083    3.1773    0.0000 H       1  UNL1        0.0663
     32 H           3.1233   -3.1301    0.0000 H       1  UNL1        0.0661
     33 H           5.9738   -0.7049    0.0000 H       1  UNL1        0.0457
     34 H           6.8207   -0.4780    0.0000 H       1  UNL1        0.0457
     35 H           6.5938    0.3689    0.0000 H       1  UNL1        0.0457
     36 H           2.5507    5.1274    0.0000 H       1  UNL1        0.1166
     37 H           1.8324    4.7126    0.0000 H       1  UNL1        0.1166
     38 H           5.7857   -5.1284    0.0000 H       1  UNL1        0.1166
     39 H           6.5008   -4.7081    0.0000 H       1  UNL1        0.1166
@<TRIPOS>BOND
     1     1    19    1
     2     1    25    1
     3     2    21    1
     4     2    25    1
     5     3    22    1
     6     3    26    1
     7     4    23    1
     8     4    26    1
     9     5    13    2
    10     6     7   ar
    11     6    13   ar
    12     6    24    1
    13     7     8   ar
    14     7    10   ar
    15     8     9   ar
    16     8    14   ar
    17     9    11   ar
    18     9    15   ar
    19    10    12   ar
    20    10    17   ar
    21    11    13   ar
    22    11    18   ar
    23    12    16   ar
    24    12    20   ar
    25    14    16   ar
    26    14    27    1
    27    15    19   ar
    28    15    28    1
    29    16    30    1
    30    17    22   ar
    31    17    29    1
    32    18    21   ar
    33    18    31    1
    34    19    21   ar
    35    20    23   ar
    36    20    32    1
    37    22    23   ar
    38    24    33    1
    39    24    34    1
    40    24    35    1
    41    25    36    1
    42    25    37    1
    43    26    38    1
    44    26    39    1
