@<TRIPOS>MOLECULE
IMPHY010935
 92 98 0 0 0
SMALL
GASTEIGER

@<TRIPOS>ATOM
      1 O           7.1982    0.9518    0.0000 O.3     1  UNL1       -0.4482
      2 O          10.6636    2.9526    0.0000 O.3     1  UNL1       -0.4910
      3 O           7.7312    3.3953    0.0000 O.3     1  UNL1       -0.4884
      4 O           8.9311    3.9528    0.0000 O.3     1  UNL1       -0.4884
      5 O           6.6738    3.3922    0.0000 O.3     1  UNL1       -0.4914
      6 O           5.0588   -2.9528    0.0000 O.3     1  UNL1       -0.4523
      7 O           3.3259   -3.9528    0.0000 O.3     1  UNL1       -0.4914
      8 N           9.7975   -0.5489    0.0000 N.3     1  UNL1       -0.2977
      9 N           2.8660    1.4521    0.0000 N.3     1  UNL1       -0.2978
     10 C           8.9311   -0.0486    0.0000 C.3     1  UNL1        0.0433
     11 C           8.9311    0.9518    0.0000 C.ar    1  UNL1        0.0228
     12 C           3.7325    0.9518    0.0000 C.3     1  UNL1        0.0397
     13 C           9.7975    1.4521    0.0000 C.ar    1  UNL1        0.0075
     14 C          10.6640   -0.0486    0.0000 C.3     1  UNL1        0.0033
     15 C          10.6640    0.9518    0.0000 C.3     1  UNL1       -0.0108
     16 C           4.5989    1.4521    0.0000 C.ar    1  UNL1       -0.0231
     17 C           8.5245   -0.9518    0.0000 C.3     1  UNL1       -0.0078
     18 C           2.8660    2.4526    0.0000 C.3     1  UNL1        0.0032
     19 C           4.5989    2.4526    0.0000 C.ar    1  UNL1       -0.0378
     20 C           3.7325    2.9528    0.0000 C.3     1  UNL1       -0.0144
     21 C           8.0646    1.4521    0.0000 C.ar    1  UNL1        0.1788
     22 C           3.3259    0.0486    0.0000 C.3     1  UNL1       -0.0078
     23 C           9.7975    2.4526    0.0000 C.ar    1  UNL1        0.1689
     24 C           5.4653    0.9518    0.0000 C.ar    1  UNL1       -0.0107
     25 C           9.7975   -1.5489    0.0000 C.3     1  UNL1       -0.0122
     26 C           6.3318    1.4521    0.0000 C.ar    1  UNL1        0.1703
     27 C           8.0646    2.4526    0.0000 C.ar    1  UNL1        0.2082
     28 C           7.6581   -1.4521    0.0000 C.ar    1  UNL1       -0.0453
     29 C           5.4653    2.9528    0.0000 C.ar    1  UNL1       -0.0128
     30 C           8.9311    2.9528    0.0000 C.ar    1  UNL1        0.2075
     31 C           2.0000    0.9521    0.0000 C.3     1  UNL1       -0.0122
     32 C           3.3259   -0.9518    0.0000 C.ar    1  UNL1       -0.0419
     33 C           6.3318    2.4526    0.0000 C.ar    1  UNL1        0.1624
     34 C           6.7917   -0.9518    0.0000 C.ar    1  UNL1       -0.0550
     35 C           7.6581   -2.4526    0.0000 C.ar    1  UNL1       -0.0550
     36 C           4.1924   -1.4521    0.0000 C.ar    1  UNL1       -0.0124
     37 C           2.4595   -1.4521    0.0000 C.ar    1  UNL1       -0.0548
     38 C           4.1924   -2.4526    0.0000 C.ar    1  UNL1        0.1701
     39 C           5.9252   -1.4521    0.0000 C.ar    1  UNL1       -0.0191
     40 C           6.7917   -2.9528    0.0000 C.ar    1  UNL1       -0.0191
     41 C           5.9252   -2.4526    0.0000 C.ar    1  UNL1        0.1286
     42 C           2.4595   -2.4526    0.0000 C.ar    1  UNL1       -0.0160
     43 C           3.3259   -2.9528    0.0000 C.ar    1  UNL1        0.1621
     44 C          10.6635    3.9526    0.0000 C.3     1  UNL1        0.0790
     45 C           7.9138    4.3785    0.0000 C.3     1  UNL1        0.0791
     46 C           9.7971    4.4528    0.0000 C.3     1  UNL1        0.0791
     47 C           6.0310    4.1583    0.0000 C.3     1  UNL1        0.0790
     48 C           2.4599   -4.4528    0.0000 C.3     1  UNL1        0.0790
     49 H           8.1000    0.1298    0.0000 H       1  UNL1        0.0517
     50 H           2.9235    0.6908    0.0000 H       1  UNL1        0.0515
     51 H          10.8760   -0.6312    0.0000 H       1  UNL1        0.0430
     52 H          11.2745    0.0590    0.0000 H       1  UNL1        0.0430
     53 H          11.2745    0.8442    0.0000 H       1  UNL1        0.0327
     54 H          10.8760    1.5345    0.0000 H       1  UNL1        0.0327
     55 H           8.6526   -1.5585    0.0000 H       1  UNL1        0.0332
     56 H           8.0646   -0.5360    0.0000 H       1  UNL1        0.0332
     57 H           2.6540    3.0352    0.0000 H       1  UNL1        0.0430
     58 H           2.2554    2.3449    0.0000 H       1  UNL1        0.0430
     59 H           4.1310    3.4277    0.0000 H       1  UNL1        0.0326
     60 H           3.3339    3.4277    0.0000 H       1  UNL1        0.0326
     61 H           2.8964    0.4958    0.0000 H       1  UNL1        0.0332
     62 H           3.9321   -0.0815    0.0000 H       1  UNL1        0.0332
     63 H           5.4653    0.3318    0.0000 H       1  UNL1        0.0659
     64 H           9.1775   -1.5489    0.0000 H       1  UNL1        0.0391
     65 H           9.7975   -2.1689    0.0000 H       1  UNL1        0.0391
     66 H          10.4175   -1.5489    0.0000 H       1  UNL1        0.0391
     67 H           5.4653    3.5728    0.0000 H       1  UNL1        0.0658
     68 H           1.6900    1.4890    0.0000 H       1  UNL1        0.0391
     69 H           1.4631    0.6421    0.0000 H       1  UNL1        0.0391
     70 H           2.3100    0.4151    0.0000 H       1  UNL1        0.0391
     71 H           6.7917   -0.3318    0.0000 H       1  UNL1        0.0621
     72 H           8.1950   -2.7626    0.0000 H       1  UNL1        0.0621
     73 H           4.7293   -1.1421    0.0000 H       1  UNL1        0.0658
     74 H           1.9225   -1.1421    0.0000 H       1  UNL1        0.0621
     75 H           5.3883   -1.1421    0.0000 H       1  UNL1        0.0654
     76 H           6.7917   -3.5728    0.0000 H       1  UNL1        0.0654
     77 H           1.9225   -2.7626    0.0000 H       1  UNL1        0.0655
     78 H          11.2835    3.9526    0.0000 H       1  UNL1        0.0660
     79 H          10.6635    4.5726    0.0000 H       1  UNL1        0.0660
     80 H          10.0435    3.9526    0.0000 H       1  UNL1        0.0660
     81 H           8.5234    4.2653    0.0000 H       1  UNL1        0.0660
     82 H           8.0270    4.9881    0.0000 H       1  UNL1        0.0660
     83 H           7.3042    4.4917    0.0000 H       1  UNL1        0.0660
     84 H          10.1071    3.9159    0.0000 H       1  UNL1        0.0660
     85 H          10.3340    4.7628    0.0000 H       1  UNL1        0.0660
     86 H           9.4871    4.9897    0.0000 H       1  UNL1        0.0660
     87 H           6.5060    4.5568    0.0000 H       1  UNL1        0.0660
     88 H           5.6325    4.6332    0.0000 H       1  UNL1        0.0660
     89 H           5.5561    3.7598    0.0000 H       1  UNL1        0.0660
     90 H           2.1499   -3.9159    0.0000 H       1  UNL1        0.0660
     91 H           1.9230   -4.7628    0.0000 H       1  UNL1        0.0660
     92 H           2.7699   -4.9897    0.0000 H       1  UNL1        0.0660
@<TRIPOS>BOND
     1     1    21    1
     2     1    26    1
     3     2    23    1
     4     2    44    1
     5     3    27    1
     6     3    45    1
     7     4    30    1
     8     4    46    1
     9     5    33    1
    10     5    47    1
    11     6    38    1
    12     6    41    1
    13     7    43    1
    14     7    48    1
    15     8    10    1
    16     8    14    1
    17     8    25    1
    18     9    12    1
    19     9    18    1
    20     9    31    1
    21    10    11    1
    22    10    17    1
    23    10    49    1
    24    11    13   ar
    25    11    21   ar
    26    12    16    1
    27    12    22    1
    28    12    50    1
    29    13    15    1
    30    13    23   ar
    31    14    15    1
    32    14    51    1
    33    14    52    1
    34    15    53    1
    35    15    54    1
    36    16    19   ar
    37    16    24   ar
    38    17    28    1
    39    17    55    1
    40    17    56    1
    41    18    20    1
    42    18    57    1
    43    18    58    1
    44    19    20    1
    45    19    29   ar
    46    20    59    1
    47    20    60    1
    48    21    27   ar
    49    22    32    1
    50    22    61    1
    51    22    62    1
    52    23    30   ar
    53    24    26   ar
    54    24    63    1
    55    25    64    1
    56    25    65    1
    57    25    66    1
    58    26    33   ar
    59    27    30   ar
    60    28    34   ar
    61    28    35   ar
    62    29    33   ar
    63    29    67    1
    64    31    68    1
    65    31    69    1
    66    31    70    1
    67    32    36   ar
    68    32    37   ar
    69    34    39   ar
    70    34    71    1
    71    35    40   ar
    72    35    72    1
    73    36    38   ar
    74    36    73    1
    75    37    42   ar
    76    37    74    1
    77    38    43   ar
    78    39    41   ar
    79    39    75    1
    80    40    41   ar
    81    40    76    1
    82    42    43   ar
    83    42    77    1
    84    44    78    1
    85    44    79    1
    86    44    80    1
    87    45    81    1
    88    45    82    1
    89    45    83    1
    90    46    84    1
    91    46    85    1
    92    46    86    1
    93    47    87    1
    94    47    88    1
    95    47    89    1
    96    48    90    1
    97    48    91    1
    98    48    92    1
