@<TRIPOS>MOLECULE
IMPHY003280
 20 20 0 0 0
SMALL
GASTEIGER

@<TRIPOS>ATOM
      1 O           2.5369    1.0950    0.0000 O.3     1  UNL1       -0.5032
      2 O           6.0010    1.0950    0.0000 O.3     1  UNL1       -0.5032
      3 O           4.2690    2.0950    0.0000 O.3     1  UNL1       -0.5009
      4 O           5.1350   -2.4050    0.0000 O.2     1  UNL1       -0.2924
      5 C           4.2690   -0.9050    0.0000 C.ar    1  UNL1        0.0242
      6 C           5.1350   -0.4050    0.0000 C.ar    1  UNL1       -0.0058
      7 C           3.4030   -0.4050    0.0000 C.ar    1  UNL1       -0.0058
      8 C           3.4030    0.5950    0.0000 C.ar    1  UNL1        0.1626
      9 C           5.1350    0.5950    0.0000 C.ar    1  UNL1        0.1626
     10 C           4.2690    1.0950    0.0000 C.ar    1  UNL1        0.2006
     11 C           4.2690   -1.9050    0.0000 C.2     1  UNL1        0.1603
     12 C           3.4030   -2.4050    0.0000 C.3     1  UNL1       -0.0014
     13 H           5.6720   -0.7150    0.0000 H       1  UNL1        0.0662
     14 H           2.8660   -0.7150    0.0000 H       1  UNL1        0.0662
     15 H           3.0930   -1.8681    0.0000 H       1  UNL1        0.0309
     16 H           2.8660   -2.7150    0.0000 H       1  UNL1        0.0309
     17 H           3.7130   -2.9419    0.0000 H       1  UNL1        0.0309
     18 H           2.0000    0.7850    0.0000 H       1  UNL1        0.2923
     19 H           6.5380    0.7850    0.0000 H       1  UNL1        0.2923
     20 H           4.8059    2.4050    0.0000 H       1  UNL1        0.2924
@<TRIPOS>BOND
     1     1     8    1
     2     1    18    1
     3     2     9    1
     4     2    19    1
     5     3    10    1
     6     3    20    1
     7     4    11    2
     8     5     6   ar
     9     5     7   ar
    10     5    11    1
    11     6     9   ar
    12     6    13    1
    13     7     8   ar
    14     7    14    1
    15     8    10   ar
    16     9    10   ar
    17    11    12    1
    18    12    15    1
    19    12    16    1
    20    12    17    1
