@<TRIPOS>MOLECULE
IMPHY014222
 52 56 0 0 0
SMALL
GASTEIGER

@<TRIPOS>ATOM
      1 O           3.5122   -2.9679    0.0000 O.3     1  UNL1       -0.3911
      2 O           6.6555   -1.9808    0.0000 O.3     1  UNL1       -0.4646
      3 O           7.0156   -0.2866    0.0000 O.2     1  UNL1       -0.2453
      4 N           2.6254   -0.2389    0.0000 N.3     1  UNL1       -0.2974
      5 N           5.7049    0.7617    0.0000 N.pl3   1  UNL1       -0.3164
      6 C           3.5397   -0.4332    0.0000 C.3     1  UNL1        0.0336
      7 C           4.1652    0.2614    0.0000 C.3     1  UNL1        0.0531
      8 C           3.8286   -1.3222    0.0000 C.3     1  UNL1        0.0174
      9 C           3.7801    1.2970    0.0000 C.3     1  UNL1       -0.0238
     10 C           3.2031   -2.0168    0.0000 C.3     1  UNL1        0.0638
     11 C           4.7429   -1.5165    0.0000 C.3     1  UNL1       -0.0099
     12 C           2.3366    0.6501    0.0000 C.3     1  UNL1        0.0004
     13 C           5.0795    0.0671    0.0000 C.2     1  UNL1        0.0304
     14 C           2.0000   -0.9335    0.0000 C.3     1  UNL1        0.0016
     15 C           4.5018    1.8450    0.0000 C.ar    1  UNL1       -0.0130
     16 C           4.1376   -2.2732    0.0000 C.3     1  UNL1       -0.0461
     17 C           2.2888   -1.8225    0.0000 C.3     1  UNL1       -0.0134
     18 C           5.3683   -0.8219    0.0000 C.2     1  UNL1        0.0551
     19 C           5.4161    1.6507    0.0000 C.ar    1  UNL1        0.0353
     20 C           5.1157   -2.4811    0.0000 C.3     1  UNL1       -0.0646
     21 C           4.2129    2.7340    0.0000 C.ar    1  UNL1       -0.0559
     22 C           6.3465   -1.0298    0.0000 C.2     1  UNL1        0.3364
     23 C           6.0415    2.3453    0.0000 C.ar    1  UNL1       -0.0403
     24 C           4.8384    3.4286    0.0000 C.ar    1  UNL1       -0.0614
     25 C           5.7527    3.2343    0.0000 C.ar    1  UNL1       -0.0600
     26 C           7.6336   -2.1888    0.0000 C.3     1  UNL1        0.0820
     27 H           3.2771    0.3752    0.0000 H       1  UNL1        0.0481
     28 H           4.3564    1.5257    0.0000 H       1  UNL1        0.0290
     29 H           3.5389    1.8682    0.0000 H       1  UNL1        0.0290
     30 H           2.7883   -2.4776    0.0000 H       1  UNL1        0.0600
     31 H           4.5106   -2.0914    0.0000 H       1  UNL1        0.0323
     32 H           5.2687   -1.8451    0.0000 H       1  UNL1        0.0323
     33 H           2.1034    1.2246    0.0000 H       1  UNL1        0.0427
     34 H           1.7542    0.4376    0.0000 H       1  UNL1        0.0427
     35 H           1.6183   -0.4449    0.0000 H       1  UNL1        0.0427
     36 H           1.4526   -1.2246    0.0000 H       1  UNL1        0.0427
     37 H           3.5236   -2.3595    0.0000 H       1  UNL1        0.0269
     38 H           4.1160   -2.8928    0.0000 H       1  UNL1        0.0269
     39 H           1.6749   -1.9088    0.0000 H       1  UNL1        0.0303
     40 H           2.2672   -2.4421    0.0000 H       1  UNL1        0.0303
     41 H           6.3114    0.6328    0.0000 H       1  UNL1        0.1519
     42 H           4.9868   -3.0876    0.0000 H       1  UNL1        0.0230
     43 H           5.7222   -2.6100    0.0000 H       1  UNL1        0.0230
     44 H           5.2446   -1.8747    0.0000 H       1  UNL1        0.0230
     45 H           3.6065    2.8629    0.0000 H       1  UNL1        0.0621
     46 H           3.0973   -3.4286    0.0000 H       1  UNL1        0.2098
     47 H           6.6480    2.2164    0.0000 H       1  UNL1        0.0636
     48 H           4.6468    4.0183    0.0000 H       1  UNL1        0.0618
     49 H           6.1676    3.6950    0.0000 H       1  UNL1        0.0618
     50 H           7.5047   -2.7952    0.0000 H       1  UNL1        0.0661
     51 H           8.2401   -2.3177    0.0000 H       1  UNL1        0.0661
     52 H           7.7625   -1.5823    0.0000 H       1  UNL1        0.0661
@<TRIPOS>BOND
     1    10     1    1
     2     1    46    1
     3     2    22    1
     4     2    26    1
     5     3    22    2
     6     4     6    1
     7     4    12    1
     8     4    14    1
     9     5    13    1
    10     5    19    1
    11     5    41    1
    12     6     7    1
    13     6     8    1
    14     6    27    1
    15     7     9    1
    16     7    13    1
    17     7    15    1
    18     8    10    1
    19     8    11    1
    20     8    16    1
    21     9    12    1
    22     9    28    1
    23     9    29    1
    24    10    17    1
    25    10    30    1
    26    11    18    1
    27    11    31    1
    28    11    32    1
    29    12    33    1
    30    12    34    1
    31    13    18    2
    32    14    17    1
    33    14    35    1
    34    14    36    1
    35    15    19   ar
    36    15    21   ar
    37    16    20    1
    38    16    37    1
    39    16    38    1
    40    17    39    1
    41    17    40    1
    42    18    22    1
    43    19    23   ar
    44    20    42    1
    45    20    43    1
    46    20    44    1
    47    21    24   ar
    48    21    45    1
    49    23    25   ar
    50    23    47    1
    51    24    25   ar
    52    24    48    1
    53    25    49    1
    54    26    50    1
    55    26    51    1
    56    26    52    1
