@<TRIPOS>MOLECULE
IMPHY003264
 36 36 0 0 0
SMALL
GASTEIGER

@<TRIPOS>ATOM
      1 O           2.8660    1.5000    0.0000 O.2     1  UNL1       -0.2977
      2 C           6.3301    0.5000    0.0000 C.3     1  UNL1       -0.0281
      3 C           5.4641    0.0000    0.0000 C.3     1  UNL1       -0.0146
      4 C           7.1962    0.0000    0.0000 C.3     1  UNL1       -0.0439
      5 C           5.4641   -1.0000    0.0000 C.2     1  UNL1       -0.0729
      6 C           4.5981    0.5000    0.0000 C.3     1  UNL1       -0.0394
      7 C           7.1962   -1.0000    0.0000 C.3     1  UNL1       -0.0340
      8 C           6.8301    1.3660    0.0000 C.3     1  UNL1       -0.0593
      9 C           5.8301    1.3660    0.0000 C.3     1  UNL1       -0.0593
     10 C           6.3301   -1.5000    0.0000 C.2     1  UNL1       -0.0847
     11 C           3.7320    0.0000    0.0000 C.3     1  UNL1        0.0061
     12 C           4.5981   -1.5000    0.0000 C.3     1  UNL1       -0.0435
     13 C           2.8660    0.5000    0.0000 C.2     1  UNL1        0.1303
     14 C           2.0000    0.0000    0.0000 C.3     1  UNL1       -0.0061
     15 H           5.4641    0.6200    0.0000 H       1  UNL1        0.0351
     16 H           7.8067   -0.1077    0.0000 H       1  UNL1        0.0274
     17 H           7.4082    0.5826    0.0000 H       1  UNL1        0.0274
     18 H           4.9966    0.9749    0.0000 H       1  UNL1        0.0275
     19 H           4.1996    0.9749    0.0000 H       1  UNL1        0.0275
     20 H           7.4082   -1.5826    0.0000 H       1  UNL1        0.0308
     21 H           7.8067   -0.8923    0.0000 H       1  UNL1        0.0308
     22 H           7.3671    1.0560    0.0000 H       1  UNL1        0.0235
     23 H           7.1401    1.9030    0.0000 H       1  UNL1        0.0235
     24 H           6.2932    1.6760    0.0000 H       1  UNL1        0.0235
     25 H           6.3671    1.6760    0.0000 H       1  UNL1        0.0235
     26 H           5.5201    1.9030    0.0000 H       1  UNL1        0.0235
     27 H           5.2932    1.0560    0.0000 H       1  UNL1        0.0235
     28 H           6.3301   -2.1200    0.0000 H       1  UNL1        0.0572
     29 H           3.3335   -0.4749    0.0000 H       1  UNL1        0.0342
     30 H           4.1306   -0.4749    0.0000 H       1  UNL1        0.0342
     31 H           4.2881   -0.9631    0.0000 H       1  UNL1        0.0274
     32 H           4.0611   -1.8100    0.0000 H       1  UNL1        0.0274
     33 H           4.9081   -2.0369    0.0000 H       1  UNL1        0.0274
     34 H           1.6900    0.5369    0.0000 H       1  UNL1        0.0306
     35 H           1.4631   -0.3100    0.0000 H       1  UNL1        0.0306
     36 H           2.3100   -0.5369    0.0000 H       1  UNL1        0.0306
@<TRIPOS>BOND
     1     1    13    2
     2     2     3    1
     3     2     4    1
     4     2     8    1
     5     2     9    1
     6     3     5    1
     7     3     6    1
     8     3    15    1
     9     4     7    1
    10     4    16    1
    11     4    17    1
    12     5    10    2
    13     5    12    1
    14     6    11    1
    15     6    18    1
    16     6    19    1
    17     7    10    1
    18     7    20    1
    19     7    21    1
    20     8    22    1
    21     8    23    1
    22     8    24    1
    23     9    25    1
    24     9    26    1
    25     9    27    1
    26    10    28    1
    27    11    13    1
    28    11    29    1
    29    11    30    1
    30    12    31    1
    31    12    32    1
    32    12    33    1
    33    13    14    1
    34    14    34    1
    35    14    35    1
    36    14    36    1
