@<TRIPOS>MOLECULE
IMPHY008723
 41 43 0 0 0
SMALL
GASTEIGER

@<TRIPOS>ATOM
      1 O           6.3981   -0.4254    0.0000 O.2     1  UNL1       -0.4504
      2 O           4.6497   -1.4600    0.0000 O.3     1  UNL1       -0.4885
      3 O           2.8680   -0.4495    0.0000 O.3     1  UNL1       -0.4912
      4 O           4.6497    2.6092    0.0000 O.3     1  UNL1       -0.5058
      5 O           7.2641   -1.9254    0.0000 O.3     1  UNL1       -0.4943
      6 O           6.3981    2.5746    0.0000 O.2     1  UNL1       -0.2869
      7 O           8.9962    1.0746    0.0000 O.3     1  UNL1       -0.5059
      8 C           5.5320    1.0746    0.0000 C.ar    1  UNL1        0.1091
      9 C           5.5320    0.0746    0.0000 C.ar    1  UNL1        0.1878
     10 C           7.2641    0.0746    0.0000 C.ar    1  UNL1        0.1464
     11 C           4.6381   -0.4601    0.0000 C.ar    1  UNL1        0.2051
     12 C           8.1301   -0.4254    0.0000 C.ar    1  UNL1        0.1002
     13 C           6.3981    1.5746    0.0000 C.ar    1  UNL1        0.1967
     14 C           4.6381    1.6093    0.0000 C.ar    1  UNL1        0.1349
     15 C           7.2641    1.0746    0.0000 C.ar    1  UNL1        0.0291
     16 C           3.7320    0.0538    0.0000 C.ar    1  UNL1        0.1687
     17 C           3.7320    1.0954    0.0000 C.ar    1  UNL1        0.0261
     18 C           8.1301   -1.4254    0.0000 C.ar    1  UNL1        0.1343
     19 C           8.9962    0.0746    0.0000 C.ar    1  UNL1        0.1310
     20 C           8.9962   -1.9254    0.0000 C.ar    1  UNL1       -0.0190
     21 C           9.8622   -0.4254    0.0000 C.ar    1  UNL1       -0.0192
     22 C           9.8622   -1.4254    0.0000 C.ar    1  UNL1       -0.0548
     23 C           3.7895   -1.9700    0.0000 C.3     1  UNL1        0.0791
     24 C           2.0000    0.0471    0.0000 C.3     1  UNL1        0.0790
     25 C           7.2641   -2.9254    0.0000 C.3     1  UNL1        0.0788
     26 H           7.8010    1.3846    0.0000 H       1  UNL1        0.0693
     27 H           3.1963    1.4075    0.0000 H       1  UNL1        0.0692
     28 H           8.9962   -2.5454    0.0000 H       1  UNL1        0.0654
     29 H          10.3991   -0.1154    0.0000 H       1  UNL1        0.0654
     30 H          10.3991   -1.7354    0.0000 H       1  UNL1        0.0620
     31 H           4.1164    2.9254    0.0000 H       1  UNL1        0.2922
     32 H           3.4733   -1.4366    0.0000 H       1  UNL1        0.0660
     33 H           3.2562   -2.2862    0.0000 H       1  UNL1        0.0660
     34 H           4.1057   -2.5033    0.0000 H       1  UNL1        0.0660
     35 H           9.5331    1.3846    0.0000 H       1  UNL1        0.2922
     36 H           2.3079    0.5852    0.0000 H       1  UNL1        0.0660
     37 H           1.4619    0.3550    0.0000 H       1  UNL1        0.0660
     38 H           1.6921   -0.4910    0.0000 H       1  UNL1        0.0660
     39 H           6.6441   -2.9254    0.0000 H       1  UNL1        0.0660
     40 H           7.2641   -3.5454    0.0000 H       1  UNL1        0.0660
     41 H           7.8841   -2.9254    0.0000 H       1  UNL1        0.0660
@<TRIPOS>BOND
     1     1     9   ar
     2     1    10   ar
     3     2    11    1
     4     2    23    1
     5     3    16    1
     6     3    24    1
     7     4    14    1
     8     4    31    1
     9     5    18    1
    10     5    25    1
    11     6    13    2
    12     7    19    1
    13     7    35    1
    14     8     9   ar
    15     8    13   ar
    16     8    14   ar
    17     9    11   ar
    18    10    12    1
    19    10    15   ar
    20    11    16   ar
    21    12    18   ar
    22    12    19   ar
    23    13    15   ar
    24    14    17   ar
    25    15    26    1
    26    16    17   ar
    27    17    27    1
    28    18    20   ar
    29    19    21   ar
    30    20    22   ar
    31    20    28    1
    32    21    22   ar
    33    21    29    1
    34    22    30    1
    35    23    32    1
    36    23    33    1
    37    23    34    1
    38    24    36    1
    39    24    37    1
    40    24    38    1
    41    25    39    1
    42    25    40    1
    43    25    41    1
