@<TRIPOS>MOLECULE
IMPHY010438
 52 55 0 0 0
SMALL
GASTEIGER

@<TRIPOS>ATOM
      1 O           2.5796    0.5793    0.0000 O.3     1  UNL1       -0.3935
      2 O           2.9848    1.6926    0.0000 O.3     1  UNL1       -0.4672
      3 O           2.6840   -0.0131    0.0000 O.2     1  UNL1       -0.2497
      4 N           7.0174    1.5641    0.0000 N.3     1  UNL1       -0.2981
      5 N           4.2016   -1.0717    0.0000 N.ar    1  UNL1       -0.3567
      6 C           4.4853    1.5641    0.0000 C.3     1  UNL1        0.0058
      7 C           4.3116    0.5793    0.0000 C.3     1  UNL1        0.1369
      8 C           5.2521    0.9248    0.0000 C.3     1  UNL1       -0.0322
      9 C           5.2513    2.2069    0.0000 C.2     1  UNL1       -0.0552
     10 C           4.8116   -0.2868    0.0000 C.ar    1  UNL1        0.0401
     11 C           6.2505    0.9248    0.0000 C.3     1  UNL1       -0.0002
     12 C           6.2513    2.2069    0.0000 C.3     1  UNL1        0.0203
     13 C           5.7513   -0.6288    0.0000 C.ar    1  UNL1       -0.0167
     14 C           7.1910    0.5793    0.0000 C.3     1  UNL1        0.0033
     15 C           3.4456    0.0793    0.0000 C.3     1  UNL1        0.0660
     16 C           6.6910   -0.2868    0.0000 C.3     1  UNL1       -0.0126
     17 C           3.3268    0.7529    0.0000 C.2     1  UNL1        0.3217
     18 C           5.7141   -1.6222    0.0000 C.ar    1  UNL1        0.0032
     19 C           4.7582   -1.8954    0.0000 C.ar    1  UNL1        0.0470
     20 C           4.9093    3.1466    0.0000 C.2     1  UNL1       -0.0863
     21 C           6.4693   -2.3306    0.0000 C.ar    1  UNL1       -0.0523
     22 C           4.4914   -2.8958    0.0000 C.ar    1  UNL1       -0.0378
     23 C           3.9245    3.3202    0.0000 C.3     1  UNL1       -0.0465
     24 C           6.2257   -3.3369    0.0000 C.ar    1  UNL1       -0.0611
     25 C           5.2301   -3.6215    0.0000 C.ar    1  UNL1       -0.0598
     26 C           2.0000    1.8662    0.0000 C.3     1  UNL1        0.0817
     27 H           3.7492    1.9891    0.0000 H       1  UNL1        0.0362
     28 H           4.7349    0.5830    0.0000 H       1  UNL1        0.0284
     29 H           5.4306    0.3310    0.0000 H       1  UNL1        0.0284
     30 H           6.0721    0.3310    0.0000 H       1  UNL1        0.0427
     31 H           6.7678    0.5830    0.0000 H       1  UNL1        0.0427
     32 H           6.7693    2.5476    0.0000 H       1  UNL1        0.0473
     33 H           6.0735    2.8008    0.0000 H       1  UNL1        0.0473
     34 H           7.6165    0.1283    0.0000 H       1  UNL1        0.0430
     35 H           7.7451    0.8575    0.0000 H       1  UNL1        0.0430
     36 H           3.0471   -0.3957    0.0000 H       1  UNL1        0.0572
     37 H           3.8441   -0.3957    0.0000 H       1  UNL1        0.0572
     38 H           6.7271   -0.9057    0.0000 H       1  UNL1        0.0326
     39 H           7.2943   -0.4297    0.0000 H       1  UNL1        0.0326
     40 H           3.5820   -1.0511    0.0000 H       1  UNL1        0.1656
     41 H           5.3078    3.6215    0.0000 H       1  UNL1        0.0569
     42 H           7.0634   -2.1533    0.0000 H       1  UNL1        0.0624
     43 H           2.0426    0.2693    0.0000 H       1  UNL1        0.2095
     44 H           3.8934   -3.0593    0.0000 H       1  UNL1        0.0638
     45 H           4.0322    3.9308    0.0000 H       1  UNL1        0.0272
     46 H           3.3139    3.4279    0.0000 H       1  UNL1        0.0272
     47 H           3.8168    2.7096    0.0000 H       1  UNL1        0.0272
     48 H           6.6730   -3.7663    0.0000 H       1  UNL1        0.0618
     49 H           5.0772   -4.2224    0.0000 H       1  UNL1        0.0618
     50 H           2.1077    2.4768    0.0000 H       1  UNL1        0.0661
     51 H           1.3894    1.9739    0.0000 H       1  UNL1        0.0661
     52 H           1.8923    1.2557    0.0000 H       1  UNL1        0.0661
@<TRIPOS>BOND
     1     1    15    1
     2     1    43    1
     3     2    17    1
     4     2    26    1
     5     3    17    2
     6     4    11    1
     7     4    12    1
     8     4    14    1
     9     5    10   ar
    10     5    19   ar
    11     5    40    1
    12     6     7    1
    13     6     8    1
    14     6     9    1
    15     6    27    1
    16     7    10    1
    17     7    15    1
    18     7    17    1
    19     8    11    1
    20     8    28    1
    21     8    29    1
    22     9    12    1
    23     9    20    2
    24    10    13   ar
    25    11    30    1
    26    11    31    1
    27    12    32    1
    28    12    33    1
    29    13    16    1
    30    13    18   ar
    31    14    16    1
    32    14    34    1
    33    14    35    1
    34    15    36    1
    35    15    37    1
    36    16    38    1
    37    16    39    1
    38    18    19   ar
    39    18    21   ar
    40    19    22   ar
    41    20    23    1
    42    20    41    1
    43    21    24   ar
    44    21    42    1
    45    22    25   ar
    46    22    44    1
    47    23    45    1
    48    23    46    1
    49    23    47    1
    50    24    25   ar
    51    24    48    1
    52    25    49    1
    53    26    50    1
    54    26    51    1
    55    26    52    1
