@<TRIPOS>MOLECULE
IMPHY013601
 39 44 0 0 0
SMALL
GASTEIGER

@<TRIPOS>ATOM
      1 O           4.9820    2.5564    0.0000 O.3     1  UNL1       -0.4274
      2 O           4.5732   -2.2489    0.0000 O.3     1  UNL1       -0.4520
      3 O           3.1278   -3.0983    0.0000 O.3     1  UNL1       -0.4526
      4 O           6.3656    1.4424    0.0000 O.3     1  UNL1       -0.3540
      5 O           8.1944   -0.2137    0.0000 O.3     1  UNL1       -0.4526
      6 O           8.1944   -1.8232    0.0000 O.3     1  UNL1       -0.4526
      7 O           3.3254    3.1977    0.0000 O.2     1  UNL1       -0.2449
      8 C           4.6501   -0.0184    0.0000 C.ar    1  UNL1        0.0034
      9 C           4.6501    0.9816    0.0000 C.ar    1  UNL1        0.0424
     10 C           3.7841   -0.5184    0.0000 C.ar    1  UNL1        0.0358
     11 C           3.7841    1.4816    0.0000 C.ar    1  UNL1        0.0693
     12 C           2.9180   -0.0184    0.0000 C.ar    1  UNL1       -0.0128
     13 C           5.3871    1.6486    0.0000 C.3     1  UNL1        0.2307
     14 C           5.5161   -0.5184    0.0000 C.ar    1  UNL1       -0.0130
     15 C           3.8001   -1.5600    0.0000 C.ar    1  UNL1        0.1745
     16 C           2.9180    0.9816    0.0000 C.ar    1  UNL1       -0.0394
     17 C           2.9021   -2.0877    0.0000 C.ar    1  UNL1        0.1669
     18 C           2.0080   -0.5253    0.0000 C.ar    1  UNL1       -0.0503
     19 C           3.9933    2.4534    0.0000 C.2     1  UNL1        0.3421
     20 C           6.3821   -0.0184    0.0000 C.ar    1  UNL1       -0.0084
     21 C           2.0000   -1.5669    0.0000 C.ar    1  UNL1       -0.0155
     22 C           5.5161   -1.5184    0.0000 C.ar    1  UNL1       -0.0503
     23 C           7.2482   -0.5184    0.0000 C.ar    1  UNL1        0.1668
     24 C           4.1585   -3.1977    0.0000 C.3     1  UNL1        0.2333
     25 C           7.2482   -1.5184    0.0000 C.ar    1  UNL1        0.1663
     26 C           6.3821   -2.0184    0.0000 C.ar    1  UNL1       -0.0156
     27 C           8.7780   -1.0184    0.0000 C.3     1  UNL1        0.2332
     28 H           5.5489    1.0501    0.0000 H       1  UNL1        0.1112
     29 H           2.3811    1.2916    0.0000 H       1  UNL1        0.0632
     30 H           1.4747   -0.2091    0.0000 H       1  UNL1        0.0625
     31 H           6.3821    0.6016    0.0000 H       1  UNL1        0.0661
     32 H           1.4619   -1.8748    0.0000 H       1  UNL1        0.0655
     33 H           4.9792   -1.8284    0.0000 H       1  UNL1        0.0625
     34 H           4.0344   -3.8051    0.0000 H       1  UNL1        0.1166
     35 H           4.7495   -3.3849    0.0000 H       1  UNL1        0.1166
     36 H           6.3821   -2.6385    0.0000 H       1  UNL1        0.0655
     37 H           6.7797    1.9039    0.0000 H       1  UNL1        0.2139
     38 H           9.2389   -1.4332    0.0000 H       1  UNL1        0.1166
     39 H           9.2389   -0.6037    0.0000 H       1  UNL1        0.1166
@<TRIPOS>BOND
     1     1    13    1
     2     1    19    1
     3     2    15    1
     4     2    24    1
     5     3    17    1
     6     3    24    1
     7     4    13    1
     8     4    37    1
     9     5    23    1
    10     5    27    1
    11     6    25    1
    12     6    27    1
    13     7    19    2
    14     8     9   ar
    15     8    10   ar
    16     8    14    1
    17     9    11   ar
    18     9    13    1
    19    10    12   ar
    20    10    15   ar
    21    11    16   ar
    22    11    19    1
    23    12    16   ar
    24    12    18   ar
    25    13    28    1
    26    14    20   ar
    27    14    22   ar
    28    15    17   ar
    29    16    29    1
    30    17    21   ar
    31    18    21   ar
    32    18    30    1
    33    20    23   ar
    34    20    31    1
    35    21    32    1
    36    22    26   ar
    37    22    33    1
    38    23    25   ar
    39    24    34    1
    40    24    35    1
    41    25    26   ar
    42    26    36    1
    43    27    38    1
    44    27    39    1
