@<TRIPOS>MOLECULE
IMPHY015229
 35 36 0 0 0
SMALL
GASTEIGER

@<TRIPOS>ATOM
      1 O           5.1350   -0.6900    0.0000 O.3     1  UNL1       -0.3386
      2 O           6.0010    0.8100    0.0000 O.3     1  UNL1       -0.3340
      3 O           3.4030    1.3100    0.0000 O.3     1  UNL1       -0.3861
      4 O           2.5369   -0.1900    0.0000 O.3     1  UNL1       -0.3869
      5 O           2.5369   -2.1900    0.0000 O.3     1  UNL1       -0.3924
      6 O           6.0010    2.8100    0.0000 O.2     1  UNL1       -0.2982
      7 C           4.2690   -0.1900    0.0000 C.3     1  UNL1        0.1185
      8 C           4.2690    0.8100    0.0000 C.3     1  UNL1        0.1166
      9 C           5.1350    1.3100    0.0000 C.3     1  UNL1        0.1449
     10 C           3.4030   -0.6900    0.0000 C.3     1  UNL1        0.1069
     11 C           6.0010   -0.1900    0.0000 C.3     1  UNL1        0.1867
     12 C           3.4030   -1.6900    0.0000 C.3     1  UNL1        0.0727
     13 C           6.8671   -0.6900    0.0000 C.ar    1  UNL1        0.0079
     14 C           5.1350    2.3100    0.0000 C.2     1  UNL1        0.1516
     15 C           6.8671   -1.6900    0.0000 C.ar    1  UNL1       -0.0538
     16 C           7.7331   -0.1900    0.0000 C.ar    1  UNL1       -0.0538
     17 C           7.7331   -2.1900    0.0000 C.ar    1  UNL1       -0.0613
     18 C           8.5991   -0.6900    0.0000 C.ar    1  UNL1       -0.0613
     19 C           8.5991   -1.6900    0.0000 C.ar    1  UNL1       -0.0617
     20 H           4.2690   -0.8100    0.0000 H       1  UNL1        0.0651
     21 H           4.2690    1.4300    0.0000 H       1  UNL1        0.0650
     22 H           5.6720    1.6200    0.0000 H       1  UNL1        0.0701
     23 H           3.4030   -0.0700    0.0000 H       1  UNL1        0.0643
     24 H           6.5380    0.1200    0.0000 H       1  UNL1        0.0965
     25 H           3.6150   -2.2726    0.0000 H       1  UNL1        0.0584
     26 H           4.0135   -1.5823    0.0000 H       1  UNL1        0.0584
     27 H           4.5981    2.6200    0.0000 H       1  UNL1        0.1055
     28 H           3.4030    1.9300    0.0000 H       1  UNL1        0.2100
     29 H           2.0000   -0.5000    0.0000 H       1  UNL1        0.2100
     30 H           6.3301   -2.0000    0.0000 H       1  UNL1        0.0622
     31 H           7.7331    0.4300    0.0000 H       1  UNL1        0.0622
     32 H           2.5369   -2.8100    0.0000 H       1  UNL1        0.2095
     33 H           7.7331   -2.8100    0.0000 H       1  UNL1        0.0618
     34 H           9.1360   -0.3800    0.0000 H       1  UNL1        0.0618
     35 H           9.1360   -2.0000    0.0000 H       1  UNL1        0.0618
@<TRIPOS>BOND
     1     1     7    1
     2     1    11    1
     3     2     9    1
     4     2    11    1
     5     3     8    1
     6     3    28    1
     7     4    10    1
     8     4    29    1
     9     5    12    1
    10     5    32    1
    11     6    14    2
    12     7     8    1
    13     7    10    1
    14     7    20    1
    15     8     9    1
    16     8    21    1
    17     9    14    1
    18     9    22    1
    19    10    12    1
    20    10    23    1
    21    11    13    1
    22    11    24    1
    23    12    25    1
    24    12    26    1
    25    13    15   ar
    26    13    16   ar
    27    14    27    1
    28    15    17   ar
    29    15    30    1
    30    16    18   ar
    31    16    31    1
    32    17    19   ar
    33    17    33    1
    34    18    19   ar
    35    18    34    1
    36    19    35    1
