@<TRIPOS>MOLECULE
IMPHY003502
 59 63 0 0 0
SMALL
GASTEIGER

@<TRIPOS>ATOM
      1 O           6.3582    0.1005    0.0000 O.3     1  UNL1       -0.4826
      2 O           8.5022    2.1690    0.0000 O.3     1  UNL1       -0.4906
      3 O          11.2275   -0.1802    0.0000 O.3     1  UNL1       -0.4814
      4 O           7.7710   -1.2560    0.0000 O.3     1  UNL1       -0.4939
      5 O           2.8687    1.0048    0.0000 O.3     1  UNL1       -0.5064
      6 C           6.8550    1.6338    0.0000 C.3     1  UNL1        0.0631
      7 C           7.1640    0.6827    0.0000 C.3     1  UNL1        0.1419
      8 C           5.8609    1.6312    0.0000 C.ar    1  UNL1        0.0050
      9 C           8.1421    0.4748    0.0000 C.ar    1  UNL1        0.0773
     10 C           7.5241    2.3769    0.0000 C.3     1  UNL1        0.1002
     11 C           5.5545    0.6855    0.0000 C.ar    1  UNL1        0.1320
     12 C           8.8113    1.2180    0.0000 C.ar    1  UNL1        0.1342
     13 C           8.4487   -0.5207    0.0000 C.ar    1  UNL1        0.1409
     14 C           4.5453    0.4538    0.0000 C.ar    1  UNL1        0.0396
     15 C           5.1793    2.4107    0.0000 C.ar    1  UNL1       -0.0511
     16 C           9.4659   -0.7451    0.0000 C.ar    1  UNL1        0.0588
     17 C           9.8334    1.0171    0.0000 C.ar    1  UNL1        0.0230
     18 C          10.1629    0.0290    0.0000 C.ar    1  UNL1        0.1358
     19 C           3.8459    1.2173    0.0000 C.ar    1  UNL1        0.1238
     20 C          11.5707   -1.2095    0.0000 C.3     1  UNL1        0.1235
     21 C           4.1650    2.2024    0.0000 C.ar    1  UNL1       -0.0194
     22 C           4.2482   -0.5011    0.0000 C.3     1  UNL1       -0.0023
     23 C           9.7852   -1.7820    0.0000 C.2     1  UNL1       -0.0478
     24 C          10.8447   -2.0158    0.0000 C.2     1  UNL1       -0.0408
     25 C          12.3164   -1.8757    0.0000 C.3     1  UNL1       -0.0215
     26 C          12.5206   -0.8968    0.0000 C.3     1  UNL1       -0.0215
     27 C           3.2727   -0.7211    0.0000 C.2     1  UNL1       -0.0807
     28 C           8.0690   -2.2106    0.0000 C.3     1  UNL1        0.0788
     29 C           2.9755   -1.6759    0.0000 C.2     1  UNL1       -0.0793
     30 C           2.0000   -1.8960    0.0000 C.3     1  UNL1       -0.0440
     31 C           3.6538   -2.4107    0.0000 C.3     1  UNL1       -0.0440
     32 H           6.5082    2.4098    0.0000 H       1  UNL1        0.0423
     33 H           7.3396   -0.1489    0.0000 H       1  UNL1        0.0794
     34 H           7.7564    2.9518    0.0000 H       1  UNL1        0.0704
     35 H           6.9983    2.7055    0.0000 H       1  UNL1        0.0704
     36 H           5.3772    2.9983    0.0000 H       1  UNL1        0.0623
     37 H          10.2429    1.4826    0.0000 H       1  UNL1        0.0691
     38 H           3.7515    2.6644    0.0000 H       1  UNL1        0.0654
     39 H           4.2775   -1.1204    0.0000 H       1  UNL1        0.0358
     40 H           4.8631   -0.5797    0.0000 H       1  UNL1        0.0358
     41 H           9.3650   -2.2380    0.0000 H       1  UNL1        0.0624
     42 H          11.0340   -2.6062    0.0000 H       1  UNL1        0.0611
     43 H          12.7144   -1.4857    0.0000 H       1  UNL1        0.0271
     44 H          13.1095   -0.7029    0.0000 H       1  UNL1        0.0271
     45 H          12.3267   -0.3079    0.0000 H       1  UNL1        0.0271
     46 H          11.9034   -2.3381    0.0000 H       1  UNL1        0.0271
     47 H          12.7788   -2.2888    0.0000 H       1  UNL1        0.0271
     48 H          12.7295   -1.4134    0.0000 H       1  UNL1        0.0271
     49 H           2.8521   -0.2656    0.0000 H       1  UNL1        0.0575
     50 H           2.4517    1.4636    0.0000 H       1  UNL1        0.2921
     51 H           7.4772   -2.3954    0.0000 H       1  UNL1        0.0660
     52 H           8.2538   -2.8024    0.0000 H       1  UNL1        0.0660
     53 H           8.6608   -2.0258    0.0000 H       1  UNL1        0.0660
     54 H           3.1982   -2.8313    0.0000 H       1  UNL1        0.0274
     55 H           4.0744   -2.8663    0.0000 H       1  UNL1        0.0274
     56 H           4.1094   -1.9902    0.0000 H       1  UNL1        0.0274
     57 H           1.8636   -1.2912    0.0000 H       1  UNL1        0.0274
     58 H           1.3952   -2.0324    0.0000 H       1  UNL1        0.0274
     59 H           2.1364   -2.5008    0.0000 H       1  UNL1        0.0274
@<TRIPOS>BOND
     1     1     7    1
     2     1    11    1
     3     2    10    1
     4     2    12    1
     5     3    18    1
     6     3    20    1
     7     4    13    1
     8     4    28    1
     9     5    19    1
    10     5    50    1
    11     6     7    1
    12     6     8    1
    13     6    10    1
    14     6    32    1
    15     7     9    1
    16     7    33    1
    17     8    11   ar
    18     8    15   ar
    19     9    12   ar
    20     9    13   ar
    21    10    34    1
    22    10    35    1
    23    11    14   ar
    24    12    17   ar
    25    13    16   ar
    26    14    19   ar
    27    14    22    1
    28    15    21   ar
    29    15    36    1
    30    16    18   ar
    31    16    23    1
    32    17    18   ar
    33    17    37    1
    34    19    21   ar
    35    20    24    1
    36    20    25    1
    37    20    26    1
    38    21    38    1
    39    22    27    1
    40    22    39    1
    41    22    40    1
    42    23    24    2
    43    23    41    1
    44    24    42    1
    45    25    46    1
    46    25    47    1
    47    25    48    1
    48    26    43    1
    49    26    44    1
    50    26    45    1
    51    27    29    2
    52    27    49    1
    53    28    51    1
    54    28    52    1
    55    28    53    1
    56    29    30    1
    57    29    31    1
    58    30    57    1
    59    30    58    1
    60    30    59    1
    61    31    54    1
    62    31    55    1
    63    31    56    1
