@<TRIPOS>MOLECULE
IMPHY007258
 27 29 0 0 0
SMALL
GASTEIGER

@<TRIPOS>ATOM
      1 O           6.4144    2.0346    0.0000 O.3     1  UNL1       -0.5028
      2 O           6.4144   -2.0346    0.0000 O.3     1  UNL1       -0.5059
      3 O           4.6660    2.0000    0.0000 O.2     1  UNL1       -0.2865
      4 O           4.6660   -2.0000    0.0000 O.2     1  UNL1       -0.2865
      5 O           8.1962    1.0241    0.0000 O.3     1  UNL1       -0.5032
      6 C           5.5321    0.5000    0.0000 C.ar    1  UNL1        0.0816
      7 C           5.5321   -0.5000    0.0000 C.ar    1  UNL1        0.0782
      8 C           3.8000    0.5000    0.0000 C.ar    1  UNL1        0.0332
      9 C           3.8000   -0.5000    0.0000 C.ar    1  UNL1        0.0332
     10 C           4.6660    1.0000    0.0000 C.2     1  UNL1        0.1982
     11 C           4.6660   -1.0000    0.0000 C.2     1  UNL1        0.1981
     12 C           6.4260    1.0347    0.0000 C.ar    1  UNL1        0.1702
     13 C           6.4260   -1.0347    0.0000 C.ar    1  UNL1        0.1320
     14 C           7.3321    0.5208    0.0000 C.ar    1  UNL1        0.1625
     15 C           2.9061    1.0347    0.0000 C.ar    1  UNL1       -0.0502
     16 C           2.9061   -1.0347    0.0000 C.ar    1  UNL1       -0.0502
     17 C           7.3321   -0.5208    0.0000 C.ar    1  UNL1        0.0257
     18 C           2.0000    0.5208    0.0000 C.ar    1  UNL1       -0.0610
     19 C           2.0000   -0.5208    0.0000 C.ar    1  UNL1       -0.0610
     20 H           2.9132    1.6546    0.0000 H       1  UNL1        0.0625
     21 H           2.9132   -1.6546    0.0000 H       1  UNL1        0.0625
     22 H           7.8678   -0.8329    0.0000 H       1  UNL1        0.0692
     23 H           1.4643    0.8329    0.0000 H       1  UNL1        0.0618
     24 H           1.4643   -0.8329    0.0000 H       1  UNL1        0.0618
     25 H           6.9478    2.3508    0.0000 H       1  UNL1        0.2923
     26 H           6.9478   -2.3508    0.0000 H       1  UNL1        0.2922
     27 H           8.7343    0.7162    0.0000 H       1  UNL1        0.2923
@<TRIPOS>BOND
     1     1    12    1
     2     1    25    1
     3     2    13    1
     4     2    26    1
     5     3    10    2
     6     4    11    2
     7     5    14    1
     8     5    27    1
     9     6     7   ar
    10     6    10    1
    11     6    12   ar
    12     7    11    1
    13     7    13   ar
    14     8     9   ar
    15     8    10    1
    16     8    15   ar
    17     9    11    1
    18     9    16   ar
    19    12    14   ar
    20    13    17   ar
    21    14    17   ar
    22    15    18   ar
    23    15    20    1
    24    16    19   ar
    25    16    21    1
    26    17    22    1
    27    18    19   ar
    28    18    23    1
    29    19    24    1
