@<TRIPOS>MOLECULE
IMPHY005353
 31 31 0 0 0
SMALL
GASTEIGER

@<TRIPOS>ATOM
      1 O           5.6350    0.6340    0.0000 O.3     1  UNL1       -0.3748
      2 O           6.0010    3.0000    0.0000 O.3     1  UNL1       -0.3777
      3 O           3.6350    2.3660    0.0000 O.3     1  UNL1       -0.4785
      4 O           5.1350    3.2320    0.0000 O.2     1  UNL1       -0.2476
      5 O           7.7331    2.0000    0.0000 O.3     1  UNL1       -0.4787
      6 O           6.8671    0.5000    0.0000 O.2     1  UNL1       -0.2480
      7 O           2.5369   -2.0000    0.0000 O.3     1  UNL1       -0.5033
      8 O           4.2690   -3.0000    0.0000 O.3     1  UNL1       -0.5033
      9 C           5.1350    1.5000    0.0000 C.3     1  UNL1        0.2024
     10 C           4.2690    1.0000    0.0000 C.3     1  UNL1        0.0150
     11 C           6.0010    2.0000    0.0000 C.3     1  UNL1        0.1910
     12 C           4.2690    0.0000    0.0000 C.ar    1  UNL1       -0.0403
     13 C           4.6350    2.3660    0.0000 C.2     1  UNL1        0.3403
     14 C           3.4030   -0.5000    0.0000 C.ar    1  UNL1       -0.0132
     15 C           5.1350   -0.5000    0.0000 C.ar    1  UNL1       -0.0548
     16 C           6.8671    1.5000    0.0000 C.2     1  UNL1        0.3371
     17 C           3.4030   -1.5000    0.0000 C.ar    1  UNL1        0.1585
     18 C           5.1350   -1.5000    0.0000 C.ar    1  UNL1       -0.0163
     19 C           4.2690   -2.0000    0.0000 C.ar    1  UNL1        0.1582
     20 H           4.0569    1.5826    0.0000 H       1  UNL1        0.0348
     21 H           3.6584    0.8923    0.0000 H       1  UNL1        0.0348
     22 H           6.5380    2.3100    0.0000 H       1  UNL1        0.0746
     23 H           2.8660   -0.1900    0.0000 H       1  UNL1        0.0658
     24 H           6.2550    0.6340    0.0000 H       1  UNL1        0.2110
     25 H           5.6720   -0.1900    0.0000 H       1  UNL1        0.0621
     26 H           6.5380    3.3100    0.0000 H       1  UNL1        0.2106
     27 H           5.6720   -1.8100    0.0000 H       1  UNL1        0.0655
     28 H           3.3250    2.9030    0.0000 H       1  UNL1        0.2951
     29 H           8.2700    1.6900    0.0000 H       1  UNL1        0.2951
     30 H           2.0000   -1.6900    0.0000 H       1  UNL1        0.2923
     31 H           4.8059   -3.3100    0.0000 H       1  UNL1        0.2923
@<TRIPOS>BOND
     1     9     1    1
     2     1    24    1
     3    11     2    1
     4     2    26    1
     5     3    13    1
     6     3    28    1
     7     4    13    2
     8     5    16    1
     9     5    29    1
    10     6    16    2
    11     7    17    1
    12     7    30    1
    13     8    19    1
    14     8    31    1
    15     9    10    1
    16     9    11    1
    17     9    13    1
    18    10    12    1
    19    10    20    1
    20    10    21    1
    21    11    16    1
    22    11    22    1
    23    12    14   ar
    24    12    15   ar
    25    14    17   ar
    26    14    23    1
    27    15    18   ar
    28    15    25    1
    29    17    19   ar
    30    18    19   ar
    31    18    27    1
