@<TRIPOS>MOLECULE
IMPHY007628
 36 37 0 0 0
SMALL
GASTEIGER

@<TRIPOS>ATOM
      1 O           5.4641    0.7500    0.0000 O.3     1  UNL1       -0.4563
      2 O           2.8660   -0.7500    0.0000 O.3     1  UNL1       -0.4943
      3 O           6.3301   -2.7500    0.0000 O.3     1  UNL1       -0.4951
      4 O           3.7320    0.7500    0.0000 O.2     1  UNL1       -0.2448
      5 C           4.5981   -0.7500    0.0000 C.ar    1  UNL1        0.1039
      6 C           3.7320   -1.2500    0.0000 C.ar    1  UNL1        0.1343
      7 C           6.3301    2.2500    0.0000 C.ar    1  UNL1       -0.0103
      8 C           5.4641    1.7500    0.0000 C.3     1  UNL1        0.1179
      9 C           5.4641   -1.2500    0.0000 C.ar    1  UNL1       -0.0024
     10 C           5.4641   -2.2500    0.0000 C.ar    1  UNL1        0.1211
     11 C           4.5981    0.2500    0.0000 C.2     1  UNL1        0.3432
     12 C           3.7320   -2.2500    0.0000 C.ar    1  UNL1       -0.0157
     13 C           4.5981   -2.7500    0.0000 C.ar    1  UNL1       -0.0165
     14 C           7.1962    1.7500    0.0000 C.ar    1  UNL1       -0.0554
     15 C           6.3301    3.2500    0.0000 C.ar    1  UNL1       -0.0554
     16 C           8.0622    2.2500    0.0000 C.ar    1  UNL1       -0.0614
     17 C           7.1962    3.7500    0.0000 C.ar    1  UNL1       -0.0614
     18 C           8.0622    3.2500    0.0000 C.ar    1  UNL1       -0.0617
     19 C           2.0000   -1.2500    0.0000 C.3     1  UNL1        0.0788
     20 C           6.3301   -3.7500    0.0000 C.3     1  UNL1        0.0788
     21 H           5.2520    2.3326    0.0000 H       1  UNL1        0.0749
     22 H           4.8535    1.6423    0.0000 H       1  UNL1        0.0749
     23 H           6.0010   -0.9400    0.0000 H       1  UNL1        0.0663
     24 H           3.1951   -2.5600    0.0000 H       1  UNL1        0.0655
     25 H           4.5981   -3.3700    0.0000 H       1  UNL1        0.0655
     26 H           7.1962    1.1300    0.0000 H       1  UNL1        0.0621
     27 H           5.7932    3.5600    0.0000 H       1  UNL1        0.0621
     28 H           8.5991    1.9400    0.0000 H       1  UNL1        0.0618
     29 H           7.1962    4.3700    0.0000 H       1  UNL1        0.0618
     30 H           8.5991    3.5600    0.0000 H       1  UNL1        0.0618
     31 H           1.6900   -0.7131    0.0000 H       1  UNL1        0.0660
     32 H           1.4631   -1.5600    0.0000 H       1  UNL1        0.0660
     33 H           2.3100   -1.7869    0.0000 H       1  UNL1        0.0660
     34 H           5.7101   -3.7500    0.0000 H       1  UNL1        0.0660
     35 H           6.3301   -4.3700    0.0000 H       1  UNL1        0.0660
     36 H           6.9501   -3.7500    0.0000 H       1  UNL1        0.0660
@<TRIPOS>BOND
     1     1     8    1
     2     1    11    1
     3     2     6    1
     4     2    19    1
     5     3    10    1
     6     3    20    1
     7     4    11    2
     8     5     6   ar
     9     5     9   ar
    10     5    11    1
    11     6    12   ar
    12     7     8    1
    13     7    14   ar
    14     7    15   ar
    15     8    21    1
    16     8    22    1
    17     9    10   ar
    18     9    23    1
    19    10    13   ar
    20    12    13   ar
    21    12    24    1
    22    13    25    1
    23    14    16   ar
    24    14    26    1
    25    15    17   ar
    26    15    27    1
    27    16    18   ar
    28    16    28    1
    29    17    18   ar
    30    17    29    1
    31    18    30    1
    32    19    31    1
    33    19    32    1
    34    19    33    1
    35    20    34    1
    36    20    35    1
    37    20    36    1
