@<TRIPOS>MOLECULE
IMPHY010153
 38 41 0 0 0
SMALL
GASTEIGER

@<TRIPOS>ATOM
      1 O           4.5864    1.2825    0.0000 O.2     1  UNL1       -0.2899
      2 N           6.6882   -0.5205    0.0000 N.3     1  UNL1       -0.2942
      3 N           3.2922   -0.4605    0.0000 N.ar    1  UNL1       -0.3516
      4 C           6.9470    0.4454    0.0000 C.3     1  UNL1        0.0469
      5 C           8.3460   -0.0634    0.0000 C.3     1  UNL1       -0.0265
      6 C           8.0872   -1.0294    0.0000 C.3     1  UNL1        0.0005
      7 C           5.7104    1.2940    0.0000 C.3     1  UNL1        0.0210
      8 C           6.5764    1.7940    0.0000 C.2     1  UNL1       -0.0492
      9 C           5.6124   -1.5366    0.0000 C.3     1  UNL1        0.0270
     10 C           4.6276   -1.3629    0.0000 C.ar    1  UNL1        0.0024
     11 C           4.9284    0.3428    0.0000 C.2     1  UNL1        0.1866
     12 C           4.2856   -0.4232    0.0000 C.ar    1  UNL1        0.0883
     13 C           3.8427   -1.9729    0.0000 C.ar    1  UNL1        0.0048
     14 C           3.0190   -1.4163    0.0000 C.ar    1  UNL1        0.0473
     15 C           6.8353    2.7600    0.0000 C.2     1  UNL1       -0.0860
     16 C           3.7855   -3.0068    0.0000 C.ar    1  UNL1       -0.0523
     17 C           2.0811   -1.8550    0.0000 C.ar    1  UNL1       -0.0378
     18 C           6.1282    3.4671    0.0000 C.3     1  UNL1       -0.0465
     19 C           2.8579   -3.4671    0.0000 C.ar    1  UNL1       -0.0611
     20 C           2.0000   -2.8873    0.0000 C.ar    1  UNL1       -0.0598
     21 H           7.1670    1.2664    0.0000 H       1  UNL1        0.0428
     22 H           8.9399   -0.2412    0.0000 H       1  UNL1        0.0287
     23 H           8.5409    0.5251    0.0000 H       1  UNL1        0.0287
     24 H           7.8922   -1.6179    0.0000 H       1  UNL1        0.0427
     25 H           8.6811   -1.2071    0.0000 H       1  UNL1        0.0427
     26 H           5.4057    1.8340    0.0000 H       1  UNL1        0.0473
     27 H           5.1675    0.9946    0.0000 H       1  UNL1        0.0473
     28 H           5.3780   -2.1106    0.0000 H       1  UNL1        0.0477
     29 H           6.1238   -1.8871    0.0000 H       1  UNL1        0.0477
     30 H           2.9096    0.0274    0.0000 H       1  UNL1        0.1660
     31 H           7.4341    2.9204    0.0000 H       1  UNL1        0.0569
     32 H           4.3032   -3.3480    0.0000 H       1  UNL1        0.0624
     33 H           1.5714   -1.5020    0.0000 H       1  UNL1        0.0638
     34 H           6.5666    3.9055    0.0000 H       1  UNL1        0.0272
     35 H           5.6897    3.9055    0.0000 H       1  UNL1        0.0272
     36 H           5.6897    3.0287    0.0000 H       1  UNL1        0.0272
     37 H           2.8165   -4.0857    0.0000 H       1  UNL1        0.0618
     38 H           1.4415   -3.1565    0.0000 H       1  UNL1        0.0618
@<TRIPOS>BOND
     1     1    11    2
     2     2     6    1
     3     2     7    1
     4     2     9    1
     5     3    12   ar
     6     3    14   ar
     7     3    30    1
     8     4     5    1
     9     4     8    1
    10     4    11    1
    11     4    21    1
    12     5     6    1
    13     5    22    1
    14     5    23    1
    15     6    24    1
    16     6    25    1
    17     7     8    1
    18     7    26    1
    19     7    27    1
    20     8    15    2
    21     9    10    1
    22     9    28    1
    23     9    29    1
    24    10    12   ar
    25    10    13   ar
    26    11    12    1
    27    13    14   ar
    28    13    16   ar
    29    14    17   ar
    30    15    18    1
    31    15    31    1
    32    16    19   ar
    33    16    32    1
    34    17    20   ar
    35    17    33    1
    36    18    34    1
    37    18    35    1
    38    18    36    1
    39    19    20   ar
    40    19    37    1
    41    20    38    1
