@<TRIPOS>MOLECULE
IMPHY005719
 102 106 0 0 0
SMALL
GASTEIGER

@<TRIPOS>ATOM
      1 O          11.2957    4.6679    0.0000 O.3     1  UNL1       -0.3914
      2 O           9.5407   -0.2530    0.0000 O.2     1  UNL1       -0.2968
      3 O          12.3739    3.6539    0.0000 O.3     1  UNL1       -0.3806
      4 O           6.8671   -1.8984    0.0000 O.3     1  UNL1       -0.3379
      5 O           5.0597   -0.8456    0.0000 O.2     1  UNL1       -0.2937
      6 O          13.4321    1.5062    0.0000 O.2     1  UNL1       -0.2896
      7 O           5.1350   -1.8984    0.0000 O.3     1  UNL1       -0.3405
      8 O           6.8671   -3.8984    0.0000 O.3     1  UNL1       -0.3841
      9 O           5.1350   -4.8984    0.0000 O.3     1  UNL1       -0.3864
     10 O          16.1377    4.4524    0.0000 O.3     1  UNL1       -0.3851
     11 O           3.4030   -3.8984    0.0000 O.3     1  UNL1       -0.3865
     12 O           2.5369   -2.3984    0.0000 O.3     1  UNL1       -0.3924
     13 C           9.5754    2.7468    0.0000 C.3     1  UNL1       -0.0195
     14 C          10.4356    2.2368    0.0000 C.3     1  UNL1       -0.0114
     15 C           8.7037    2.2568    0.0000 C.3     1  UNL1       -0.0190
     16 C           8.6921    1.2569    0.0000 C.3     1  UNL1        0.0364
     17 C          11.1803    2.8953    0.0000 C.3     1  UNL1        0.0271
     18 C           9.7959    3.7161    0.0000 C.3     1  UNL1       -0.0202
     19 C          10.7857    3.8077    0.0000 C.3     1  UNL1        0.0621
     20 C          10.4241    1.2369    0.0000 C.3     1  UNL1        0.0127
     21 C           7.7920    0.7326    0.0000 C.3     1  UNL1       -0.0039
     22 C           9.5523    0.7469    0.0000 C.2     1  UNL1        0.1406
     23 C           7.8160    2.8018    0.0000 C.3     1  UNL1       -0.0302
     24 C           8.7152    3.2568    0.0000 C.3     1  UNL1       -0.0587
     25 C          11.2958    1.7268    0.0000 C.3     1  UNL1       -0.0582
     26 C          12.1564    2.6778    0.0000 C.3     1  UNL1        0.1304
     27 C           6.8920    1.2569    0.0000 C.2     1  UNL1       -0.0565
     28 C           8.6806    0.2570    0.0000 C.3     1  UNL1       -0.0520
     29 C           7.8046   -0.3523    0.0000 C.3     1  UNL1       -0.0121
     30 C           6.9040    2.2985    0.0000 C.2     1  UNL1       -0.0832
     31 C           5.9421    0.7326    0.0000 C.3     1  UNL1        0.0471
     32 C           6.8671   -0.8984    0.0000 C.3     1  UNL1        0.1209
     33 C          11.9388    1.7018    0.0000 C.3     1  UNL1       -0.0284
     34 C           5.9295   -0.3523    0.0000 C.2     1  UNL1        0.1714
     35 C          13.1324    2.4603    0.0000 C.2     1  UNL1        0.1872
     36 C           4.9422    0.7480    0.0000 C.3     1  UNL1       -0.0492
     37 C           5.4555    1.6062    0.0000 C.3     1  UNL1       -0.0492
     38 C          13.8088    3.1968    0.0000 C.2     1  UNL1       -0.0176
     39 C           6.0010   -2.3984    0.0000 C.3     1  UNL1        0.1887
     40 C          14.7849    2.9793    0.0000 C.2     1  UNL1       -0.0500
     41 C           6.0010   -3.3984    0.0000 C.3     1  UNL1        0.1341
     42 C           5.1350   -3.8984    0.0000 C.3     1  UNL1        0.1141
     43 C          15.4613    3.7158    0.0000 C.3     1  UNL1        0.0789
     44 C           4.2690   -2.3984    0.0000 C.3     1  UNL1        0.1130
     45 C           4.2690   -3.3984    0.0000 C.3     1  UNL1        0.1119
     46 C          16.1978    3.0394    0.0000 C.3     1  UNL1       -0.0327
     47 C          14.7247    4.3922    0.0000 C.3     1  UNL1       -0.0327
     48 C           3.4030   -1.8984    0.0000 C.3     1  UNL1        0.0730
     49 H           9.4348    1.8234    0.0000 H       1  UNL1        0.0319
     50 H          11.7220    3.5504    0.0000 H       1  UNL1        0.0363
     51 H           9.8039    4.3361    0.0000 H       1  UNL1        0.0296
     52 H           9.1802    3.7893    0.0000 H       1  UNL1        0.0296
     53 H          10.4543    4.3317    0.0000 H       1  UNL1        0.0597
     54 H          10.6294    0.6519    0.0000 H       1  UNL1        0.0347
     55 H          11.0358    1.3375    0.0000 H       1  UNL1        0.0347
     56 H           8.5314    0.3133    0.0000 H       1  UNL1        0.0356
     57 H           8.2260    3.2669    0.0000 H       1  UNL1        0.0311
     58 H           7.4279    3.2854    0.0000 H       1  UNL1        0.0311
     59 H           9.0314    3.7901    0.0000 H       1  UNL1        0.0235
     60 H           8.1819    3.5730    0.0000 H       1  UNL1        0.0235
     61 H           8.3991    2.7235    0.0000 H       1  UNL1        0.0235
     62 H          10.9796    1.1935    0.0000 H       1  UNL1        0.0235
     63 H          11.8291    1.4106    0.0000 H       1  UNL1        0.0235
     64 H          11.6120    2.2602    0.0000 H       1  UNL1        0.0235
     65 H           8.0606    0.2641    0.0000 H       1  UNL1        0.0239
     66 H           8.6734   -0.3630    0.0000 H       1  UNL1        0.0239
     67 H           9.3005    0.2498    0.0000 H       1  UNL1        0.0239
     68 H           8.0204   -0.9335    0.0000 H       1  UNL1        0.0300
     69 H           8.4142   -0.2392    0.0000 H       1  UNL1        0.0300
     70 H           6.3719    2.6167    0.0000 H       1  UNL1        0.0572
     71 H           7.4046   -1.2074    0.0000 H       1  UNL1        0.0677
     72 H          10.9919    5.2084    0.0000 H       1  UNL1        0.2098
     73 H          11.3337    1.8366    0.0000 H       1  UNL1        0.0262
     74 H          11.8040    1.0966    0.0000 H       1  UNL1        0.0262
     75 H          12.5440    1.5669    0.0000 H       1  UNL1        0.0262
     76 H          12.9654    3.8396    0.0000 H       1  UNL1        0.2108
     77 H           4.9518    1.3680    0.0000 H       1  UNL1        0.0242
     78 H           4.3223    0.7576    0.0000 H       1  UNL1        0.0242
     79 H           4.9326    0.1281    0.0000 H       1  UNL1        0.0242
     80 H           5.9971    1.9079    0.0000 H       1  UNL1        0.0242
     81 H           5.1538    2.1479    0.0000 H       1  UNL1        0.0242
     82 H           4.9138    1.3046    0.0000 H       1  UNL1        0.0242
     83 H          13.6230    3.7883    0.0000 H       1  UNL1        0.0651
     84 H           6.0010   -1.7784    0.0000 H       1  UNL1        0.0938
     85 H          14.9707    2.3878    0.0000 H       1  UNL1        0.0601
     86 H           6.0010   -4.0184    0.0000 H       1  UNL1        0.0671
     87 H           4.5981   -4.2084    0.0000 H       1  UNL1        0.0648
     88 H           4.2690   -1.7784    0.0000 H       1  UNL1        0.0647
     89 H           3.7320   -3.0884    0.0000 H       1  UNL1        0.0647
     90 H           6.8671   -4.5184    0.0000 H       1  UNL1        0.2101
     91 H          15.1441    4.8489    0.0000 H       1  UNL1        0.0260
     92 H          14.2681    4.8116    0.0000 H       1  UNL1        0.0260
     93 H          15.7784    2.5828    0.0000 H       1  UNL1        0.0260
     94 H          14.3054    3.9356    0.0000 H       1  UNL1        0.0260
     95 H          16.6545    2.6201    0.0000 H       1  UNL1        0.0260
     96 H          16.6172    3.4961    0.0000 H       1  UNL1        0.0260
     97 H           3.8015   -1.4235    0.0000 H       1  UNL1        0.0584
     98 H           3.0044   -1.4235    0.0000 H       1  UNL1        0.0584
     99 H           4.5981   -5.2084    0.0000 H       1  UNL1        0.2100
    100 H          16.7428    4.3175    0.0000 H       1  UNL1        0.2106
    101 H           3.4030   -4.5184    0.0000 H       1  UNL1        0.2100
    102 H           2.0000   -2.0884    0.0000 H       1  UNL1        0.2095
@<TRIPOS>BOND
     1    19     1    1
     2     1    72    1
     3     2    22    2
     4    26     3    1
     5     3    76    1
     6    32     4    1
     7    39     4    1
     8     5    34    2
     9     6    35    2
    10     7    39    1
    11     7    44    1
    12    41     8    1
    13     8    90    1
    14    42     9    1
    15     9    99    1
    16    10    43    1
    17    10   100    1
    18    45    11    1
    19    11   101    1
    20    12    48    1
    21    12   102    1
    22    13    14    1
    23    13    15    1
    24    13    18    1
    25    13    24    1
    26    14    17    1
    27    14    20    1
    28    14    25    1
    29    15    16    1
    30    15    23    1
    31    15    49    1
    32    16    21    1
    33    16    22    1
    34    16    28    1
    35    17    19    1
    36    17    26    1
    37    17    50    1
    38    18    19    1
    39    18    51    1
    40    18    52    1
    41    19    53    1
    42    20    22    1
    43    20    54    1
    44    20    55    1
    45    21    27    1
    46    21    29    1
    47    21    56    1
    48    23    30    1
    49    23    57    1
    50    23    58    1
    51    24    59    1
    52    24    60    1
    53    24    61    1
    54    25    62    1
    55    25    63    1
    56    25    64    1
    57    26    33    1
    58    26    35    1
    59    27    30    2
    60    27    31    1
    61    28    65    1
    62    28    66    1
    63    28    67    1
    64    29    32    1
    65    29    68    1
    66    29    69    1
    67    30    70    1
    68    31    34    1
    69    31    36    1
    70    31    37    1
    71    32    34    1
    72    32    71    1
    73    33    73    1
    74    33    74    1
    75    33    75    1
    76    35    38    1
    77    36    77    1
    78    36    78    1
    79    36    79    1
    80    37    80    1
    81    37    81    1
    82    37    82    1
    83    38    40    2
    84    38    83    1
    85    39    41    1
    86    39    84    1
    87    40    43    1
    88    40    85    1
    89    41    42    1
    90    41    86    1
    91    42    45    1
    92    42    87    1
    93    43    46    1
    94    43    47    1
    95    44    45    1
    96    44    48    1
    97    44    88    1
    98    45    89    1
    99    46    93    1
   100    46    95    1
   101    46    96    1
   102    47    91    1
   103    47    92    1
   104    47    94    1
   105    48    97    1
   106    48    98    1
