@<TRIPOS>MOLECULE
IMPHY002074
 51 54 0 0 0
SMALL
GASTEIGER

@<TRIPOS>ATOM
      1 O           5.1350   -2.7836    0.0000 O.3     1  UNL1       -0.3313
      2 O           6.8671   -2.7836    0.0000 O.3     1  UNL1       -0.4608
      3 O           5.1350   -5.7836    0.0000 O.3     1  UNL1       -0.3864
      4 O           3.4030   -4.7836    0.0000 O.3     1  UNL1       -0.3865
      5 O           6.8671   -4.7836    0.0000 O.3     1  UNL1       -0.3829
      6 O           2.5369   -3.2836    0.0000 O.3     1  UNL1       -0.3924
      7 O           6.0010    2.7164    0.0000 O.2     1  UNL1       -0.4620
      8 O           8.5991    1.2164    0.0000 O.2     1  UNL1       -0.2864
      9 O           9.5191    4.7615    0.0000 O.3     1  UNL1       -0.5033
     10 O           7.7452    5.7857    0.0000 O.3     1  UNL1       -0.5032
     11 C           5.1350   -4.7836    0.0000 C.3     1  UNL1        0.1152
     12 C           4.2690   -4.2836    0.0000 C.3     1  UNL1        0.1120
     13 C           6.0010   -4.2836    0.0000 C.3     1  UNL1        0.1454
     14 C           4.2690   -3.2836    0.0000 C.3     1  UNL1        0.1140
     15 C           6.0010   -3.2836    0.0000 C.3     1  UNL1        0.2308
     16 C           3.4030   -2.7836    0.0000 C.3     1  UNL1        0.0731
     17 C           6.8671   -1.7836    0.0000 C.ar    1  UNL1        0.1240
     18 C           7.7331   -1.2836    0.0000 C.ar    1  UNL1       -0.0192
     19 C           6.0010   -1.2836    0.0000 C.ar    1  UNL1       -0.0192
     20 C           6.8671    0.2164    0.0000 C.ar    1  UNL1       -0.0110
     21 C           7.7331   -0.2836    0.0000 C.ar    1  UNL1       -0.0504
     22 C           6.0010   -0.2836    0.0000 C.ar    1  UNL1       -0.0504
     23 C           6.8671    1.2164    0.0000 C.ar    1  UNL1        0.0643
     24 C           7.7331    1.7164    0.0000 C.ar    1  UNL1        0.2003
     25 C           7.7331    2.7164    0.0000 C.ar    1  UNL1        0.0682
     26 C           6.8671    3.2164    0.0000 C.ar    1  UNL1        0.1421
     27 C           6.0010    1.7164    0.0000 C.ar    1  UNL1        0.1038
     28 C           8.6431    3.2232    0.0000 C.ar    1  UNL1       -0.0022
     29 C           6.8510    4.2579    0.0000 C.ar    1  UNL1        0.0265
     30 C           8.6511    4.2648    0.0000 C.ar    1  UNL1        0.1591
     31 C           7.7490    4.7857    0.0000 C.ar    1  UNL1        0.1618
     32 H           5.6720   -5.0936    0.0000 H       1  UNL1        0.0648
     33 H           4.2690   -4.9036    0.0000 H       1  UNL1        0.0647
     34 H           6.5380   -3.9736    0.0000 H       1  UNL1        0.0683
     35 H           4.2690   -2.6636    0.0000 H       1  UNL1        0.0647
     36 H           6.0010   -2.6636    0.0000 H       1  UNL1        0.1084
     37 H           3.8015   -2.3086    0.0000 H       1  UNL1        0.0584
     38 H           3.0044   -2.3086    0.0000 H       1  UNL1        0.0584
     39 H           5.6720   -6.0936    0.0000 H       1  UNL1        0.2100
     40 H           3.4030   -5.4036    0.0000 H       1  UNL1        0.2100
     41 H           7.4040   -4.4736    0.0000 H       1  UNL1        0.2102
     42 H           2.0000   -2.9736    0.0000 H       1  UNL1        0.2095
     43 H           8.2700   -1.5936    0.0000 H       1  UNL1        0.0654
     44 H           5.4641   -1.5936    0.0000 H       1  UNL1        0.0654
     45 H           8.2700    0.0264    0.0000 H       1  UNL1        0.0625
     46 H           5.4641    0.0264    0.0000 H       1  UNL1        0.0625
     47 H           5.4641    1.4064    0.0000 H       1  UNL1        0.1037
     48 H           9.1764    2.9071    0.0000 H       1  UNL1        0.0663
     49 H           6.3105    4.5617    0.0000 H       1  UNL1        0.0692
     50 H          10.0548    4.4494    0.0000 H       1  UNL1        0.2923
     51 H           7.2071    6.0936    0.0000 H       1  UNL1        0.2923
@<TRIPOS>BOND
     1     1    14    1
     2     1    15    1
     3    15     2    1
     4     2    17    1
     5    11     3    1
     6     3    39    1
     7    12     4    1
     8     4    40    1
     9    13     5    1
    10     5    41    1
    11     6    16    1
    12     6    42    1
    13     7    26   ar
    14     7    27   ar
    15     8    24    2
    16     9    30    1
    17     9    50    1
    18    10    31    1
    19    10    51    1
    20    11    12    1
    21    11    13    1
    22    11    32    1
    23    12    14    1
    24    12    33    1
    25    13    15    1
    26    13    34    1
    27    14    16    1
    28    14    35    1
    29    15    36    1
    30    16    37    1
    31    16    38    1
    32    17    18   ar
    33    17    19   ar
    34    18    21   ar
    35    18    43    1
    36    19    22   ar
    37    19    44    1
    38    20    21   ar
    39    20    22   ar
    40    20    23    1
    41    21    45    1
    42    22    46    1
    43    23    24   ar
    44    23    27   ar
    45    24    25   ar
    46    25    26   ar
    47    25    28   ar
    48    26    29   ar
    49    27    47    1
    50    28    30   ar
    51    28    48    1
    52    29    31   ar
    53    29    49    1
    54    30    31   ar
