@<TRIPOS>MOLECULE
IMPHY001318
 64 68 0 0 0
SMALL
GASTEIGER

@<TRIPOS>ATOM
      1 O           5.9670   -0.1811    0.0000 O.2     1  UNL1       -0.4699
      2 O           6.8671   -1.7053    0.0000 O.3     1  UNL1       -0.3093
      3 O           5.1350   -1.7053    0.0000 O.3     1  UNL1       -0.3404
      4 O           6.0308    2.8672    0.0000 O.2     1  UNL1       -0.2702
      5 O           6.8671   -3.7053    0.0000 O.3     1  UNL1       -0.3841
      6 O           5.1350   -4.7053    0.0000 O.3     1  UNL1       -0.3864
      7 O           3.4030   -3.7053    0.0000 O.3     1  UNL1       -0.3865
      8 O          12.2716    2.3038    0.0000 O.3     1  UNL1       -0.5033
      9 O           2.5369   -2.2053    0.0000 O.3     1  UNL1       -0.3924
     10 O          12.2958    4.3954    0.0000 O.3     1  UNL1       -0.5033
     11 N           7.7628    2.8605    0.0000 N.am    1  UNL1       -0.2903
     12 C           7.7551    0.8605    0.0000 C.3     1  UNL1        0.0059
     13 C           8.6269    2.3572    0.0000 C.3     1  UNL1        0.0524
     14 C           8.6230    1.3572    0.0000 C.3     1  UNL1       -0.0223
     15 C           7.7671   -0.1811    0.0000 C.3     1  UNL1        0.0466
     16 C           6.8910    1.3638    0.0000 C.2     1  UNL1        0.0526
     17 C           6.8671   -0.7053    0.0000 C.3     1  UNL1        0.2102
     18 C           9.5388    2.8605    0.0000 C.ar    1  UNL1       -0.0201
     19 C           7.7508    3.9020    0.0000 C.3     1  UNL1        0.0196
     20 C           6.8948    2.3638    0.0000 C.2     1  UNL1        0.2463
     21 C           8.6508    4.4263    0.0000 C.3     1  UNL1       -0.0114
     22 C           9.5509    3.9020    0.0000 C.ar    1  UNL1       -0.0373
     23 C           5.9790    0.8605    0.0000 C.2     1  UNL1        0.0963
     24 C           6.0010   -2.2053    0.0000 C.3     1  UNL1        0.1918
     25 C           8.6370   -0.6744    0.0000 C.2     1  UNL1       -0.0816
     26 C           6.0010   -3.2053    0.0000 C.3     1  UNL1        0.1342
     27 C           5.1350   -3.7053    0.0000 C.3     1  UNL1        0.1141
     28 C           4.2690   -3.2053    0.0000 C.3     1  UNL1        0.1119
     29 C           4.2690   -2.2053    0.0000 C.3     1  UNL1        0.1130
     30 C          10.4635    2.2928    0.0000 C.ar    1  UNL1       -0.0113
     31 C          10.4884    4.4482    0.0000 C.ar    1  UNL1       -0.0130
     32 C          11.4134    2.8171    0.0000 C.ar    1  UNL1        0.1585
     33 C          11.4259    3.9020    0.0000 C.ar    1  UNL1        0.1585
     34 C           3.4030   -1.7053    0.0000 C.3     1  UNL1        0.0730
     35 C           8.6447   -1.6743    0.0000 C.2     1  UNL1       -0.1022
     36 H           8.4928    0.4383    0.0000 H       1  UNL1        0.0360
     37 H           9.3580    1.9237    0.0000 H       1  UNL1        0.0551
     38 H           8.8328    0.7737    0.0000 H       1  UNL1        0.0292
     39 H           9.2340    1.4625    0.0000 H       1  UNL1        0.0292
     40 H           7.7707   -0.8010    0.0000 H       1  UNL1        0.0410
     41 H           7.4046   -1.0143    0.0000 H       1  UNL1        0.1062
     42 H           7.5350    4.4833    0.0000 H       1  UNL1        0.0468
     43 H           7.1412    3.7889    0.0000 H       1  UNL1        0.0468
     44 H           9.0500    4.9008    0.0000 H       1  UNL1        0.0328
     45 H           8.2517    4.9008    0.0000 H       1  UNL1        0.0328
     46 H           5.4470    1.1788    0.0000 H       1  UNL1        0.1029
     47 H           6.5380   -2.5153    0.0000 H       1  UNL1        0.0939
     48 H           9.1715   -0.3602    0.0000 H       1  UNL1        0.0571
     49 H           6.0010   -3.8253    0.0000 H       1  UNL1        0.0671
     50 H           4.5981   -4.0153    0.0000 H       1  UNL1        0.0648
     51 H           3.7320   -2.8953    0.0000 H       1  UNL1        0.0647
     52 H           4.2690   -1.5853    0.0000 H       1  UNL1        0.0647
     53 H          10.4491    1.6730    0.0000 H       1  UNL1        0.0659
     54 H          10.4884    5.0682    0.0000 H       1  UNL1        0.0658
     55 H           3.8015   -1.2304    0.0000 H       1  UNL1        0.0584
     56 H           3.0044   -1.2304    0.0000 H       1  UNL1        0.0584
     57 H           8.1102   -1.9885    0.0000 H       1  UNL1        0.0532
     58 H           9.1840   -1.9802    0.0000 H       1  UNL1        0.0532
     59 H           6.8671   -4.3253    0.0000 H       1  UNL1        0.2101
     60 H           4.5981   -5.0153    0.0000 H       1  UNL1        0.2100
     61 H           3.4030   -4.3253    0.0000 H       1  UNL1        0.2100
     62 H          12.8133    2.6055    0.0000 H       1  UNL1        0.2923
     63 H           2.0000   -1.8953    0.0000 H       1  UNL1        0.2095
     64 H          12.3006    5.0153    0.0000 H       1  UNL1        0.2923
@<TRIPOS>BOND
     1     1    17    1
     2     1    23    1
     3    17     2    1
     4    24     2    1
     5     3    24    1
     6     3    29    1
     7     4    20    2
     8    26     5    1
     9     5    59    1
    10    27     6    1
    11     6    60    1
    12    28     7    1
    13     7    61    1
    14     8    32    1
    15     8    62    1
    16     9    34    1
    17     9    63    1
    18    10    33    1
    19    10    64    1
    20    11    13    1
    21    11    19    1
    22    11    20   am
    23    12    14    1
    24    12    15    1
    25    12    16    1
    26    12    36    1
    27    13    14    1
    28    13    18    1
    29    13    37    1
    30    14    38    1
    31    14    39    1
    32    15    17    1
    33    15    25    1
    34    15    40    1
    35    16    20    1
    36    16    23    2
    37    17    41    1
    38    18    22   ar
    39    18    30   ar
    40    19    21    1
    41    19    42    1
    42    19    43    1
    43    21    22    1
    44    21    44    1
    45    21    45    1
    46    22    31   ar
    47    23    46    1
    48    24    26    1
    49    24    47    1
    50    25    35    2
    51    25    48    1
    52    26    27    1
    53    26    49    1
    54    27    28    1
    55    27    50    1
    56    28    29    1
    57    28    51    1
    58    29    34    1
    59    29    52    1
    60    30    32   ar
    61    30    53    1
    62    31    33   ar
    63    31    54    1
    64    32    33   ar
    65    34    55    1
    66    34    56    1
    67    35    57    1
    68    35    58    1
