@<TRIPOS>MOLECULE
IMPHY008204
 31 31 0 0 0
SMALL
GASTEIGER

@<TRIPOS>ATOM
      1 O           2.8660    0.5000    0.0000 O.3     1  UNL1       -0.4947
      2 O           6.3301   -1.5000    0.0000 O.3     1  UNL1       -0.4914
      3 O           4.5981   -2.5000    0.0000 O.3     1  UNL1       -0.4913
      4 C           4.5981    0.5000    0.0000 C.ar    1  UNL1        0.0017
      5 C           3.7320    0.0000    0.0000 C.ar    1  UNL1        0.1272
      6 C           4.5981    1.5000    0.0000 C.3     1  UNL1       -0.0062
      7 C           5.4641   -0.0000    0.0000 C.ar    1  UNL1       -0.0094
      8 C           5.4641   -1.0000    0.0000 C.ar    1  UNL1        0.1620
      9 C           4.5981   -1.5000    0.0000 C.ar    1  UNL1        0.1650
     10 C           3.7320   -1.0000    0.0000 C.ar    1  UNL1        0.0257
     11 C           5.4641    2.0000    0.0000 C.2     1  UNL1       -0.0867
     12 C           2.0000    0.0000    0.0000 C.3     1  UNL1        0.0788
     13 C           7.1962   -1.0000    0.0000 C.3     1  UNL1        0.0790
     14 C           3.7320   -3.0000    0.0000 C.3     1  UNL1        0.0790
     15 C           5.4641    3.0000    0.0000 C.2     1  UNL1       -0.1023
     16 H           4.3860    2.0826    0.0000 H       1  UNL1        0.0357
     17 H           3.9875    1.3923    0.0000 H       1  UNL1        0.0357
     18 H           6.0010    0.3100    0.0000 H       1  UNL1        0.0659
     19 H           3.1951   -1.3100    0.0000 H       1  UNL1        0.0692
     20 H           6.0010    1.6900    0.0000 H       1  UNL1        0.0570
     21 H           1.6900    0.5369    0.0000 H       1  UNL1        0.0660
     22 H           1.4631   -0.3100    0.0000 H       1  UNL1        0.0660
     23 H           2.3100   -0.5369    0.0000 H       1  UNL1        0.0660
     24 H           7.5062   -1.5369    0.0000 H       1  UNL1        0.0660
     25 H           7.7331   -0.6900    0.0000 H       1  UNL1        0.0660
     26 H           6.8862   -0.4631    0.0000 H       1  UNL1        0.0660
     27 H           3.4220   -2.4631    0.0000 H       1  UNL1        0.0660
     28 H           3.1951   -3.3100    0.0000 H       1  UNL1        0.0660
     29 H           4.0420   -3.5369    0.0000 H       1  UNL1        0.0660
     30 H           6.0010    3.3100    0.0000 H       1  UNL1        0.0532
     31 H           4.9272    3.3100    0.0000 H       1  UNL1        0.0532
@<TRIPOS>BOND
     1     1     5    1
     2     1    12    1
     3     2     8    1
     4     2    13    1
     5     3     9    1
     6     3    14    1
     7     4     5   ar
     8     4     6    1
     9     4     7   ar
    10     5    10   ar
    11     6    11    1
    12     6    16    1
    13     6    17    1
    14     7     8   ar
    15     7    18    1
    16     8     9   ar
    17     9    10   ar
    18    10    19    1
    19    11    15    2
    20    11    20    1
    21    12    21    1
    22    12    22    1
    23    12    23    1
    24    13    24    1
    25    13    25    1
    26    13    26    1
    27    14    27    1
    28    14    28    1
    29    14    29    1
    30    15    30    1
    31    15    31    1
