@<TRIPOS>MOLECULE
IMPHY015388
 22 21 0 0 0
SMALL
GASTEIGER

@<TRIPOS>ATOM
      1 S           8.0622    1.0000    0.0000 S.2     1  UNL1        0.0203
      2 N           6.3301    0.0000    0.0000 N.2     1  UNL1       -0.2346
      3 C           2.8660    0.0000    0.0000 C.3     1  UNL1       -0.0467
      4 C           3.7320    0.5000    0.0000 C.3     1  UNL1       -0.0490
      5 C           4.5981    0.0000    0.0000 C.3     1  UNL1       -0.0324
      6 C           2.0000    0.5000    0.0000 C.3     1  UNL1       -0.0627
      7 C           2.8660   -1.0000    0.0000 C.3     1  UNL1       -0.0627
      8 C           5.4641    0.5000    0.0000 C.3     1  UNL1        0.0495
      9 C           7.1962    0.5000    0.0000 C.1     1  UNL1        0.0358
     10 H           2.8660    0.6200    0.0000 H       1  UNL1        0.0295
     11 H           4.1306    0.9749    0.0000 H       1  UNL1        0.0268
     12 H           3.3335    0.9749    0.0000 H       1  UNL1        0.0268
     13 H           4.1996   -0.4749    0.0000 H       1  UNL1        0.0283
     14 H           4.9966   -0.4749    0.0000 H       1  UNL1        0.0283
     15 H           2.3100    1.0369    0.0000 H       1  UNL1        0.0232
     16 H           1.4631    0.8100    0.0000 H       1  UNL1        0.0232
     17 H           1.6900   -0.0369    0.0000 H       1  UNL1        0.0232
     18 H           2.2460   -1.0000    0.0000 H       1  UNL1        0.0232
     19 H           2.8660   -1.6200    0.0000 H       1  UNL1        0.0232
     20 H           3.4860   -1.0000    0.0000 H       1  UNL1        0.0232
     21 H           5.8626    0.9749    0.0000 H       1  UNL1        0.0516
     22 H           5.0656    0.9749    0.0000 H       1  UNL1        0.0516
@<TRIPOS>BOND
     1     1     9    2
     2     2     8    1
     3     2     9    2
     4     3     4    1
     5     3     6    1
     6     3     7    1
     7     3    10    1
     8     4     5    1
     9     4    11    1
    10     4    12    1
    11     5     8    1
    12     5    13    1
    13     5    14    1
    14     6    15    1
    15     6    16    1
    16     6    17    1
    17     7    18    1
    18     7    19    1
    19     7    20    1
    20     8    21    1
    21     8    22    1
