@<TRIPOS>MOLECULE
IMPHY017312
 14 14 0 0 0
SMALL
GASTEIGER

@<TRIPOS>ATOM
      1 S           3.7601   -1.1739    0.0000 S.2     1  UNL1        0.0066
      2 N           4.5691   -0.5861    0.0000 N.ar    1  UNL1       -0.2182
      3 C           3.2601    0.3649    0.0000 C.ar    1  UNL1       -0.0209
      4 C           2.9511   -0.5861    0.0000 C.ar    1  UNL1        0.0096
      5 C           2.6723    1.1739    0.0000 C.3     1  UNL1       -0.0375
      6 C           2.0000   -0.8952    0.0000 C.3     1  UNL1       -0.0317
      7 C           4.2601    0.3649    0.0000 C.ar    1  UNL1        0.0398
      8 H           3.1739    1.5384    0.0000 H       1  UNL1        0.0278
      9 H           2.3079    1.6755    0.0000 H       1  UNL1        0.0278
     10 H           2.1707    0.8095    0.0000 H       1  UNL1        0.0278
     11 H           1.8084   -0.3055    0.0000 H       1  UNL1        0.0283
     12 H           1.4103   -1.0868    0.0000 H       1  UNL1        0.0283
     13 H           2.1916   -1.4848    0.0000 H       1  UNL1        0.0283
     14 H           4.6245    0.8665    0.0000 H       1  UNL1        0.0839
@<TRIPOS>BOND
     1     1     2   ar
     2     1     4   ar
     3     2     7   ar
     4     3     4   ar
     5     3     5    1
     6     3     7   ar
     7     4     6    1
     8     5     8    1
     9     5     9    1
    10     5    10    1
    11     6    11    1
    12     6    12    1
    13     6    13    1
    14     7    14    1
