@<TRIPOS>MOLECULE
IMPHY002503
 58 60 0 0 0
SMALL
GASTEIGER

@<TRIPOS>ATOM
      1 O          10.3312   -1.1550    0.0000 O.3     1  UNL1       -0.3394
      2 O           8.5991   -3.1550    0.0000 O.3     1  UNL1       -0.4529
      3 O          12.0632   -1.1550    0.0000 O.3     1  UNL1       -0.3484
      4 O          10.3312   -4.1550    0.0000 O.3     1  UNL1       -0.3853
      5 O          12.0632   -3.1550    0.0000 O.3     1  UNL1       -0.3841
      6 O           8.5991   -0.1550    0.0000 O.3     1  UNL1       -0.3923
      7 O           7.7331   -1.6550    0.0000 O.2     1  UNL1       -0.2456
      8 O          12.9292    4.3450    0.0000 O.3     1  UNL1       -0.5068
      9 O           2.5369   -4.6550    0.0000 O.3     1  UNL1       -0.5068
     10 C           9.4651   -2.6550    0.0000 C.3     1  UNL1        0.1598
     11 C          10.3312   -3.1550    0.0000 C.3     1  UNL1        0.1251
     12 C           9.4651   -1.6550    0.0000 C.3     1  UNL1        0.1240
     13 C          11.1972   -2.6550    0.0000 C.3     1  UNL1        0.1352
     14 C          11.1972   -1.6550    0.0000 C.3     1  UNL1        0.1880
     15 C           8.5991   -1.1550    0.0000 C.3     1  UNL1        0.0741
     16 C          12.0632   -0.1550    0.0000 C.3     1  UNL1        0.0547
     17 C          12.9292    0.3450    0.0000 C.3     1  UNL1       -0.0040
     18 C           7.7331   -2.6550    0.0000 C.2     1  UNL1        0.3324
     19 C          12.9292    1.3450    0.0000 C.ar    1  UNL1       -0.0450
     20 C           6.8671   -3.1550    0.0000 C.2     1  UNL1        0.0231
     21 C          13.7953    1.8450    0.0000 C.ar    1  UNL1       -0.0551
     22 C          12.0632    1.8450    0.0000 C.ar    1  UNL1       -0.0551
     23 C           6.0010   -2.6550    0.0000 C.2     1  UNL1       -0.0478
     24 C          13.7953    2.8450    0.0000 C.ar    1  UNL1       -0.0199
     25 C          12.0632    2.8450    0.0000 C.ar    1  UNL1       -0.0199
     26 C          12.9292    3.3450    0.0000 C.ar    1  UNL1        0.1169
     27 C           5.1350   -3.1550    0.0000 C.ar    1  UNL1       -0.0246
     28 C           4.2690   -2.6550    0.0000 C.ar    1  UNL1       -0.0511
     29 C           5.1350   -4.1550    0.0000 C.ar    1  UNL1       -0.0511
     30 C           3.4030   -3.1550    0.0000 C.ar    1  UNL1       -0.0196
     31 C           4.2690   -4.6550    0.0000 C.ar    1  UNL1       -0.0196
     32 C           3.4030   -4.1550    0.0000 C.ar    1  UNL1        0.1169
     33 H           9.4651   -3.2750    0.0000 H       1  UNL1        0.0788
     34 H          10.8681   -3.4650    0.0000 H       1  UNL1        0.0659
     35 H           9.4651   -1.0350    0.0000 H       1  UNL1        0.0658
     36 H          11.7341   -2.3450    0.0000 H       1  UNL1        0.0671
     37 H          11.1972   -1.0350    0.0000 H       1  UNL1        0.0937
     38 H           7.9885   -1.0473    0.0000 H       1  UNL1        0.0584
     39 H           8.3871   -1.7376    0.0000 H       1  UNL1        0.0584
     40 H          10.8681   -4.4650    0.0000 H       1  UNL1        0.2101
     41 H          12.6002   -2.8450    0.0000 H       1  UNL1        0.2101
     42 H          11.8512    0.4276    0.0000 H       1  UNL1        0.0564
     43 H          11.4526   -0.2627    0.0000 H       1  UNL1        0.0564
     44 H          13.1413   -0.2376    0.0000 H       1  UNL1        0.0335
     45 H          13.5398    0.4527    0.0000 H       1  UNL1        0.0335
     46 H           8.0622    0.1550    0.0000 H       1  UNL1        0.2095
     47 H           6.8671   -3.7750    0.0000 H       1  UNL1        0.0689
     48 H          14.3322    1.5350    0.0000 H       1  UNL1        0.0621
     49 H          11.5263    1.5350    0.0000 H       1  UNL1        0.0621
     50 H           6.0010   -2.0350    0.0000 H       1  UNL1        0.0626
     51 H          14.3322    3.1550    0.0000 H       1  UNL1        0.0654
     52 H          11.5263    3.1550    0.0000 H       1  UNL1        0.0654
     53 H           4.2690   -2.0350    0.0000 H       1  UNL1        0.0625
     54 H           5.6720   -4.4650    0.0000 H       1  UNL1        0.0625
     55 H          13.4662    4.6550    0.0000 H       1  UNL1        0.2921
     56 H           2.8660   -2.8450    0.0000 H       1  UNL1        0.0654
     57 H           4.2690   -5.2750    0.0000 H       1  UNL1        0.0654
     58 H           2.0000   -4.3450    0.0000 H       1  UNL1        0.2921
@<TRIPOS>BOND
     1     1    12    1
     2     1    14    1
     3    10     2    1
     4     2    18    1
     5    14     3    1
     6     3    16    1
     7    11     4    1
     8     4    40    1
     9    13     5    1
    10     5    41    1
    11     6    15    1
    12     6    46    1
    13     7    18    2
    14     8    26    1
    15     8    55    1
    16     9    32    1
    17     9    58    1
    18    10    11    1
    19    10    12    1
    20    10    33    1
    21    11    13    1
    22    11    34    1
    23    12    15    1
    24    12    35    1
    25    13    14    1
    26    13    36    1
    27    14    37    1
    28    15    38    1
    29    15    39    1
    30    16    17    1
    31    16    42    1
    32    16    43    1
    33    17    19    1
    34    17    44    1
    35    17    45    1
    36    18    20    1
    37    19    21   ar
    38    19    22   ar
    39    20    23    2
    40    20    47    1
    41    21    24   ar
    42    21    48    1
    43    22    25   ar
    44    22    49    1
    45    23    27    1
    46    23    50    1
    47    24    26   ar
    48    24    51    1
    49    25    26   ar
    50    25    52    1
    51    27    28   ar
    52    27    29   ar
    53    28    30   ar
    54    28    53    1
    55    29    31   ar
    56    29    54    1
    57    30    32   ar
    58    30    56    1
    59    31    32   ar
    60    31    57    1
