@<TRIPOS>MOLECULE
IMPHY004297
 57 56 0 0 0
SMALL
GASTEIGER

@<TRIPOS>ATOM
      1 O           7.1962   -1.0950    0.0000 O.3     1  UNL1       -0.3918
      2 O          17.5885   -0.0950    0.0000 O.3     1  UNL1       -0.4806
      3 O          16.7224    1.4050    0.0000 O.2     1  UNL1       -0.2510
      4 C           8.0622    0.4050    0.0000 C.3     1  UNL1       -0.0269
      5 C           7.1962   -0.0950    0.0000 C.3     1  UNL1        0.0553
      6 C           8.9282   -0.0950    0.0000 C.3     1  UNL1       -0.0507
      7 C           9.7942    0.4050    0.0000 C.3     1  UNL1       -0.0530
      8 C          10.6603   -0.0950    0.0000 C.3     1  UNL1       -0.0531
      9 C           6.3301    0.4050    0.0000 C.3     1  UNL1       -0.0269
     10 C          11.5263    0.4050    0.0000 C.3     1  UNL1       -0.0531
     11 C           5.4641   -0.0950    0.0000 C.3     1  UNL1       -0.0507
     12 C          12.3923   -0.0950    0.0000 C.3     1  UNL1       -0.0531
     13 C          13.2583    0.4050    0.0000 C.3     1  UNL1       -0.0530
     14 C           4.5981    0.4050    0.0000 C.3     1  UNL1       -0.0530
     15 C          14.1244   -0.0950    0.0000 C.3     1  UNL1       -0.0526
     16 C           3.7320   -0.0950    0.0000 C.3     1  UNL1       -0.0533
     17 C          14.9904    0.4050    0.0000 C.3     1  UNL1       -0.0430
     18 C           2.8660    0.4050    0.0000 C.3     1  UNL1       -0.0559
     19 C          15.8564   -0.0950    0.0000 C.3     1  UNL1        0.0448
     20 C           2.0000   -0.0950    0.0000 C.3     1  UNL1       -0.0653
     21 C          16.7224    0.4050    0.0000 C.2     1  UNL1        0.3047
     22 H           8.4607    0.8799    0.0000 H       1  UNL1        0.0290
     23 H           7.6636    0.8799    0.0000 H       1  UNL1        0.0290
     24 H           6.4600   -0.5200    0.0000 H       1  UNL1        0.0593
     25 H           8.5297   -0.5699    0.0000 H       1  UNL1        0.0266
     26 H           9.3267   -0.5699    0.0000 H       1  UNL1        0.0266
     27 H          10.1928    0.8799    0.0000 H       1  UNL1        0.0265
     28 H           9.3957    0.8799    0.0000 H       1  UNL1        0.0265
     29 H          10.2617   -0.5699    0.0000 H       1  UNL1        0.0265
     30 H          11.0588   -0.5699    0.0000 H       1  UNL1        0.0265
     31 H           6.7287    0.8799    0.0000 H       1  UNL1        0.0290
     32 H           5.9316    0.8799    0.0000 H       1  UNL1        0.0290
     33 H          11.9248    0.8799    0.0000 H       1  UNL1        0.0265
     34 H          11.1278    0.8799    0.0000 H       1  UNL1        0.0265
     35 H           5.0656   -0.5699    0.0000 H       1  UNL1        0.0266
     36 H           5.8626   -0.5699    0.0000 H       1  UNL1        0.0266
     37 H          11.9938   -0.5699    0.0000 H       1  UNL1        0.0265
     38 H          12.7908   -0.5699    0.0000 H       1  UNL1        0.0265
     39 H          13.6569    0.8799    0.0000 H       1  UNL1        0.0265
     40 H          12.8598    0.8799    0.0000 H       1  UNL1        0.0265
     41 H           4.9966    0.8799    0.0000 H       1  UNL1        0.0265
     42 H           4.1996    0.8799    0.0000 H       1  UNL1        0.0265
     43 H          13.7258   -0.5699    0.0000 H       1  UNL1        0.0265
     44 H          14.5229   -0.5699    0.0000 H       1  UNL1        0.0265
     45 H           3.3335   -0.5699    0.0000 H       1  UNL1        0.0265
     46 H           4.1306   -0.5699    0.0000 H       1  UNL1        0.0265
     47 H          15.3889    0.8799    0.0000 H       1  UNL1        0.0270
     48 H          14.5919    0.8799    0.0000 H       1  UNL1        0.0270
     49 H           3.2646    0.8799    0.0000 H       1  UNL1        0.0263
     50 H           2.4675    0.8799    0.0000 H       1  UNL1        0.0263
     51 H           6.6592   -1.4050    0.0000 H       1  UNL1        0.2098
     52 H          15.4579   -0.5699    0.0000 H       1  UNL1        0.0377
     53 H          16.2549   -0.5699    0.0000 H       1  UNL1        0.0377
     54 H           1.6900    0.4419    0.0000 H       1  UNL1        0.0230
     55 H           1.4631   -0.4050    0.0000 H       1  UNL1        0.0230
     56 H           2.3100   -0.6319    0.0000 H       1  UNL1        0.0230
     57 H          18.1254    0.2150    0.0000 H       1  UNL1        0.2951
@<TRIPOS>BOND
     1     1     5    1
     2     1    51    1
     3     2    21    1
     4     2    57    1
     5     3    21    2
     6     4     5    1
     7     4     6    1
     8     4    22    1
     9     4    23    1
    10     5     9    1
    11     5    24    1
    12     6     7    1
    13     6    25    1
    14     6    26    1
    15     7     8    1
    16     7    27    1
    17     7    28    1
    18     8    10    1
    19     8    29    1
    20     8    30    1
    21     9    11    1
    22     9    31    1
    23     9    32    1
    24    10    12    1
    25    10    33    1
    26    10    34    1
    27    11    14    1
    28    11    35    1
    29    11    36    1
    30    12    13    1
    31    12    37    1
    32    12    38    1
    33    13    15    1
    34    13    39    1
    35    13    40    1
    36    14    16    1
    37    14    41    1
    38    14    42    1
    39    15    17    1
    40    15    43    1
    41    15    44    1
    42    16    18    1
    43    16    45    1
    44    16    46    1
    45    17    19    1
    46    17    47    1
    47    17    48    1
    48    18    20    1
    49    18    49    1
    50    18    50    1
    51    19    21    1
    52    19    52    1
    53    19    53    1
    54    20    54    1
    55    20    55    1
    56    20    56    1
