@<TRIPOS>MOLECULE
IMPHY009615
 67 71 0 0 0
SMALL
GASTEIGER

@<TRIPOS>ATOM
      1 O           6.0010   -0.9575    0.0000 O.3     1  UNL1       -0.3224
      2 O           6.9499   -0.2703    0.0000 O.3     1  UNL1       -0.3483
      3 O           8.9900   -2.2128    0.0000 O.3     1  UNL1       -0.3831
      4 O           8.9900    1.2977    0.0000 O.3     1  UNL1       -0.4549
      5 O           6.8671   -2.4575    0.0000 O.3     1  UNL1       -0.3196
      6 O          10.2629   -0.4575    0.0000 O.3     1  UNL1       -0.3852
      7 O           5.1350   -2.4575    0.0000 O.3     1  UNL1       -0.3404
      8 O           6.8671   -4.4575    0.0000 O.3     1  UNL1       -0.3841
      9 O          10.6363    0.7597    0.0000 O.2     1  UNL1       -0.2449
     10 O           5.1350   -5.4575    0.0000 O.3     1  UNL1       -0.3864
     11 O           3.4030   -4.4575    0.0000 O.3     1  UNL1       -0.3865
     12 O           2.5369   -2.9575    0.0000 O.3     1  UNL1       -0.3924
     13 O          12.5468    3.8174    0.0000 O.3     1  UNL1       -0.4914
     14 O          11.2111    5.3060    0.0000 O.3     1  UNL1       -0.5033
     15 C           7.7331   -0.9575    0.0000 C.3     1  UNL1        0.0503
     16 C           7.7331    0.0425    0.0000 C.3     1  UNL1        0.0135
     17 C           8.6793   -1.2622    0.0000 C.3     1  UNL1        0.1262
     18 C           8.6793    0.3472    0.0000 C.3     1  UNL1        0.1353
     19 C           9.2629   -0.4575    0.0000 C.3     1  UNL1        0.1234
     20 C           6.8671    0.5425    0.0000 C.3     1  UNL1        0.0053
     21 C           6.8671   -1.4575    0.0000 C.3     1  UNL1        0.1711
     22 C           7.8481   -0.7079    0.0000 C.3     1  UNL1        0.0824
     23 C           6.0010    0.0425    0.0000 C.3     1  UNL1        0.1626
     24 C           6.0010   -2.9575    0.0000 C.3     1  UNL1        0.1908
     25 C           6.0010   -3.9575    0.0000 C.3     1  UNL1        0.1342
     26 C           9.9685    1.5040    0.0000 C.2     1  UNL1        0.3397
     27 C           5.1350   -4.4575    0.0000 C.3     1  UNL1        0.1141
     28 C           4.2690   -2.9575    0.0000 C.3     1  UNL1        0.1130
     29 C           4.2690   -3.9575    0.0000 C.3     1  UNL1        0.1119
     30 C          10.2791    2.4545    0.0000 C.ar    1  UNL1        0.0627
     31 C           3.4030   -2.4575    0.0000 C.3     1  UNL1        0.0730
     32 C          11.2576    2.6607    0.0000 C.ar    1  UNL1       -0.0023
     33 C           9.6113    3.1988    0.0000 C.ar    1  UNL1       -0.0441
     34 C          11.5683    3.6112    0.0000 C.ar    1  UNL1        0.1620
     35 C           9.9220    4.1493    0.0000 C.ar    1  UNL1       -0.0157
     36 C          10.9005    4.3555    0.0000 C.ar    1  UNL1        0.1585
     37 C          12.8575    4.7680    0.0000 C.3     1  UNL1        0.0790
     38 H           7.7331   -1.8075    0.0000 H       1  UNL1        0.0383
     39 H           7.7331    0.8925    0.0000 H       1  UNL1        0.0344
     40 H           8.2418    0.7866    0.0000 H       1  UNL1        0.0764
     41 H           9.5446   -1.0098    0.0000 H       1  UNL1        0.0660
     42 H           7.2656    1.0174    0.0000 H       1  UNL1        0.0318
     43 H           6.4685    1.0174    0.0000 H       1  UNL1        0.0318
     44 H           6.3301   -1.7675    0.0000 H       1  UNL1        0.0915
     45 H           8.3910   -0.4085    0.0000 H       1  UNL1        0.0590
     46 H           7.5396   -1.2457    0.0000 H       1  UNL1        0.0590
     47 H           5.2649    0.4675    0.0000 H       1  UNL1        0.0910
     48 H           9.5966   -2.3406    0.0000 H       1  UNL1        0.2104
     49 H          10.5729    0.0794    0.0000 H       1  UNL1        0.2101
     50 H           6.0010   -2.3375    0.0000 H       1  UNL1        0.0938
     51 H           6.0010   -4.5775    0.0000 H       1  UNL1        0.0671
     52 H           4.5981   -4.7675    0.0000 H       1  UNL1        0.0648
     53 H           4.2690   -2.3375    0.0000 H       1  UNL1        0.0647
     54 H           4.2690   -4.5775    0.0000 H       1  UNL1        0.0647
     55 H           3.8015   -1.9826    0.0000 H       1  UNL1        0.0584
     56 H           3.0044   -1.9826    0.0000 H       1  UNL1        0.0584
     57 H           6.8671   -5.0775    0.0000 H       1  UNL1        0.2101
     58 H           4.5981   -5.7675    0.0000 H       1  UNL1        0.2100
     59 H           3.4030   -5.0775    0.0000 H       1  UNL1        0.2100
     60 H          11.6717    2.1992    0.0000 H       1  UNL1        0.0663
     61 H           9.0046    3.0709    0.0000 H       1  UNL1        0.0627
     62 H           2.0000   -2.6475    0.0000 H       1  UNL1        0.2095
     63 H           9.5079    4.6108    0.0000 H       1  UNL1        0.0655
     64 H          10.7971    5.7675    0.0000 H       1  UNL1        0.2923
     65 H          13.4468    4.5754    0.0000 H       1  UNL1        0.0660
     66 H          13.0501    5.3573    0.0000 H       1  UNL1        0.0660
     67 H          12.2682    4.9606    0.0000 H       1  UNL1        0.0660
@<TRIPOS>BOND
     1     1    21    1
     2     1    23    1
     3     2    22    1
     4     2    23    1
     5    17     3    1
     6     3    48    1
     7    18     4    1
     8     4    26    1
     9    21     5    1
    10    24     5    1
    11    19     6    1
    12     6    49    1
    13     7    24    1
    14     7    28    1
    15    25     8    1
    16     8    57    1
    17     9    26    2
    18    27    10    1
    19    10    58    1
    20    29    11    1
    21    11    59    1
    22    12    31    1
    23    12    62    1
    24    13    34    1
    25    13    37    1
    26    14    36    1
    27    14    64    1
    28    15    16    1
    29    15    17    1
    30    15    21    1
    31    15    38    1
    32    16    18    1
    33    16    20    1
    34    16    39    1
    35    17    19    1
    36    17    22    1
    37    18    19    1
    38    18    40    1
    39    19    41    1
    40    20    23    1
    41    20    42    1
    42    20    43    1
    43    21    44    1
    44    22    45    1
    45    22    46    1
    46    23    47    1
    47    24    25    1
    48    24    50    1
    49    25    27    1
    50    25    51    1
    51    26    30    1
    52    27    29    1
    53    27    52    1
    54    28    29    1
    55    28    31    1
    56    28    53    1
    57    29    54    1
    58    30    32   ar
    59    30    33   ar
    60    31    55    1
    61    31    56    1
    62    32    34   ar
    63    32    60    1
    64    33    35   ar
    65    33    61    1
    66    34    36   ar
    67    35    36   ar
    68    35    63    1
    69    37    65    1
    70    37    66    1
    71    37    67    1
