@<TRIPOS>MOLECULE
IMPHY004357
 42 45 0 0 0
SMALL
GASTEIGER

@<TRIPOS>ATOM
      1 O           9.1534   -0.5591    0.0000 O.3     1  UNL1       -0.4813
      2 O           2.8182    1.3712    0.0000 O.3     1  UNL1       -0.4914
      3 O           2.1888   -0.5715    0.0000 O.3     1  UNL1       -0.5032
      4 N           5.6783   -1.4757    0.0000 N.ar    1  UNL1       -0.3535
      5 C           6.4840   -0.8935    0.0000 C.ar    1  UNL1        0.0582
      6 C           9.4829   -1.5473    0.0000 C.3     1  UNL1        0.1235
      7 C           7.4622   -1.1014    0.0000 C.ar    1  UNL1        0.0407
      8 C           6.1750    0.0575    0.0000 C.ar    1  UNL1        0.0086
      9 C           8.1313   -0.3583    0.0000 C.ar    1  UNL1        0.1337
     10 C           5.1810    0.0549    0.0000 C.ar    1  UNL1        0.0111
     11 C           7.8223    0.5928    0.0000 C.ar    1  UNL1       -0.0075
     12 C           4.8746   -0.8908    0.0000 C.ar    1  UNL1        0.0512
     13 C           6.8442    0.8007    0.0000 C.ar    1  UNL1       -0.0456
     14 C           8.7859   -2.3214    0.0000 C.2     1  UNL1       -0.0408
     15 C           7.7688   -2.0970    0.0000 C.2     1  UNL1       -0.0493
     16 C          10.2286   -2.2135    0.0000 C.3     1  UNL1       -0.0215
     17 C          10.4328   -1.2346    0.0000 C.3     1  UNL1       -0.0215
     18 C           4.4994    0.8344    0.0000 C.ar    1  UNL1       -0.0066
     19 C           3.8654   -1.1225    0.0000 C.ar    1  UNL1        0.0074
     20 C           8.4914    1.3359    0.0000 C.3     1  UNL1       -0.0362
     21 C           3.4851    0.6261    0.0000 C.ar    1  UNL1        0.1620
     22 C           3.1660   -0.3590    0.0000 C.ar    1  UNL1        0.1604
     23 C           3.1300    2.3214    0.0000 C.3     1  UNL1        0.0790
     24 H           5.6772   -2.0957    0.0000 H       1  UNL1        0.1659
     25 H           6.6526    1.3903    0.0000 H       1  UNL1        0.0628
     26 H           8.9753   -2.9118    0.0000 H       1  UNL1        0.0611
     27 H           7.3486   -2.5529    0.0000 H       1  UNL1        0.0623
     28 H           9.8156   -2.6759    0.0000 H       1  UNL1        0.0271
     29 H          10.6910   -2.6266    0.0000 H       1  UNL1        0.0271
     30 H          10.6417   -1.7512    0.0000 H       1  UNL1        0.0271
     31 H          10.6266   -1.8235    0.0000 H       1  UNL1        0.0271
     32 H          11.0217   -1.0407    0.0000 H       1  UNL1        0.0271
     33 H          10.2389   -0.6457    0.0000 H       1  UNL1        0.0271
     34 H           4.6973    1.4220    0.0000 H       1  UNL1        0.0662
     35 H           3.6812   -1.7145    0.0000 H       1  UNL1        0.0676
     36 H           8.9522    0.9210    0.0000 H       1  UNL1        0.0279
     37 H           8.9063    1.7966    0.0000 H       1  UNL1        0.0279
     38 H           8.0307    1.7508    0.0000 H       1  UNL1        0.0279
     39 H           2.0000   -1.1620    0.0000 H       1  UNL1        0.2923
     40 H           3.7191    2.1280    0.0000 H       1  UNL1        0.0660
     41 H           3.3234    2.9104    0.0000 H       1  UNL1        0.0660
     42 H           2.5410    2.5147    0.0000 H       1  UNL1        0.0660
@<TRIPOS>BOND
     1     1     6    1
     2     1     9    1
     3     2    21    1
     4     2    23    1
     5     3    22    1
     6     3    39    1
     7     4     5   ar
     8     4    12   ar
     9     4    24    1
    10     5     7   ar
    11     5     8   ar
    12     6    14    1
    13     6    16    1
    14     6    17    1
    15     7     9   ar
    16     7    15    1
    17     8    10   ar
    18     8    13   ar
    19     9    11   ar
    20    10    12   ar
    21    10    18   ar
    22    11    13   ar
    23    11    20    1
    24    12    19   ar
    25    13    25    1
    26    14    15    2
    27    14    26    1
    28    15    27    1
    29    16    28    1
    30    16    29    1
    31    16    30    1
    32    17    31    1
    33    17    32    1
    34    17    33    1
    35    18    21   ar
    36    18    34    1
    37    19    22   ar
    38    19    35    1
    39    20    36    1
    40    20    37    1
    41    20    38    1
    42    21    22   ar
    43    23    40    1
    44    23    41    1
    45    23    42    1
