@<TRIPOS>MOLECULE
IMPHY003463
 18 18 0 0 0
SMALL
GASTEIGER

@<TRIPOS>ATOM
      1 O           5.0929   -0.3665    0.0000 O.3     1  UNL1       -0.4446
      2 O           2.5896    0.5814    0.0000 O.3     1  UNL1       -0.3854
      3 O           2.1738   -1.3749    0.0000 O.3     1  UNL1       -0.3923
      4 O           4.0051    1.9814    0.0000 O.2     1  UNL1       -0.2843
      5 O           6.1807    1.9814    0.0000 O.2     1  UNL1       -0.2764
      6 O           6.8530   -0.0877    0.0000 O.2     1  UNL1       -0.2412
      7 C           4.2839    0.2213    0.0000 C.3     1  UNL1        0.1966
      8 C           3.3328   -0.0877    0.0000 C.3     1  UNL1        0.1224
      9 C           4.5929    1.1723    0.0000 C.2     1  UNL1        0.2523
     10 C           3.1249   -1.0659    0.0000 C.3     1  UNL1        0.0741
     11 C           5.5929    1.1723    0.0000 C.2     1  UNL1        0.3080
     12 C           5.9019    0.2213    0.0000 C.2     1  UNL1        0.3838
     13 H           4.1509   -0.6183    0.0000 H       1  UNL1        0.0847
     14 H           3.4617    0.5187    0.0000 H       1  UNL1        0.0658
     15 H           3.2112   -1.6798    0.0000 H       1  UNL1        0.0584
     16 H           3.7445   -1.0875    0.0000 H       1  UNL1        0.0584
     17 H           2.0000    0.3898    0.0000 H       1  UNL1        0.2101
     18 H           2.0449   -1.9814    0.0000 H       1  UNL1        0.2095
@<TRIPOS>BOND
     1     1     7    1
     2     1    12    1
     3     8     2    1
     4     2    17    1
     5     3    10    1
     6     3    18    1
     7     4     9    2
     8     5    11    2
     9     6    12    2
    10     7     8    1
    11     7     9    1
    12     7    13    1
    13     8    10    1
    14     8    14    1
    15     9    11    1
    16    10    15    1
    17    10    16    1
    18    11    12    1
