@<TRIPOS>MOLECULE
IMPHY013054
 51 54 0 0 0
SMALL
GASTEIGER

@<TRIPOS>ATOM
      1 O           6.9006    0.7830    0.0000 O.3     1  UNL1       -0.4731
      2 O           6.9006   -1.2863    0.0000 O.3     1  UNL1       -0.4743
      3 O           5.1343   -2.2758    0.0000 O.3     1  UNL1       -0.4609
      4 O           8.6445    1.7898    0.0000 O.2     1  UNL1       -0.4183
      5 O           8.6605   -2.2517    0.0000 O.3     1  UNL1       -0.4913
      6 O           4.2740    3.2758    0.0000 O.3     1  UNL1       -0.4914
      7 O           2.5381    2.2825    0.0000 O.3     1  UNL1       -0.5033
      8 O           9.5386    3.3176    0.0000 O.2     1  UNL1       -0.2452
      9 O           3.4022   -2.2825    0.0000 O.2     1  UNL1       -0.2512
     10 C           5.9945    0.2691    0.0000 C.3     1  UNL1        0.1654
     11 C           5.9945   -0.7725    0.0000 C.3     1  UNL1        0.1750
     12 C           5.1304    0.7725    0.0000 C.ar    1  UNL1        0.0000
     13 C           5.1304   -1.2758    0.0000 C.3     1  UNL1        0.1331
     14 C           7.7945    0.2483    0.0000 C.ar    1  UNL1        0.2096
     15 C           7.7945   -0.7517    0.0000 C.ar    1  UNL1        0.2081
     16 C           8.6605    0.7483    0.0000 C.ar    1  UNL1        0.1844
     17 C           8.6605   -1.2517    0.0000 C.ar    1  UNL1        0.1660
     18 C           9.5266    0.2483    0.0000 C.ar    1  UNL1        0.0250
     19 C           5.1343    1.7725    0.0000 C.ar    1  UNL1       -0.0095
     20 C           4.2625    0.2758    0.0000 C.ar    1  UNL1       -0.0513
     21 C           9.5266   -0.7517    0.0000 C.ar    1  UNL1       -0.0054
     22 C           4.2702    2.2758    0.0000 C.ar    1  UNL1        0.1616
     23 C           3.3984    0.7792    0.0000 C.ar    1  UNL1       -0.0161
     24 C          10.4366    0.7552    0.0000 C.ar    1  UNL1       -0.0441
     25 C           3.4022    1.7792    0.0000 C.ar    1  UNL1        0.1585
     26 C          10.4446    1.7968    0.0000 C.ar    1  UNL1        0.0236
     27 C           9.5425    2.3176    0.0000 C.ar    1  UNL1        0.3373
     28 C           4.2702   -2.7791    0.0000 C.2     1  UNL1        0.3041
     29 C           9.5266   -2.7517    0.0000 C.3     1  UNL1        0.0790
     30 C           4.2740   -3.7791    0.0000 C.3     1  UNL1        0.0332
     31 C           3.4099    3.7791    0.0000 C.3     1  UNL1        0.0790
     32 H           5.9981    0.8891    0.0000 H       1  UNL1        0.0823
     33 H           5.9981   -1.3925    0.0000 H       1  UNL1        0.0809
     34 H           4.9161   -0.6940    0.0000 H       1  UNL1        0.0736
     35 H           4.5202   -1.3858    0.0000 H       1  UNL1        0.0736
     36 H           5.6724    2.0804    0.0000 H       1  UNL1        0.0659
     37 H           4.2601   -0.3442    0.0000 H       1  UNL1        0.0623
     38 H          10.0635   -1.0617    0.0000 H       1  UNL1        0.0662
     39 H           2.8602    0.4712    0.0000 H       1  UNL1        0.0655
     40 H          10.9699    0.4390    0.0000 H       1  UNL1        0.0627
     41 H          10.9827    2.1047    0.0000 H       1  UNL1        0.0689
     42 H           9.2166   -3.2886    0.0000 H       1  UNL1        0.0660
     43 H          10.0635   -3.0617    0.0000 H       1  UNL1        0.0660
     44 H           9.8366   -2.2147    0.0000 H       1  UNL1        0.0660
     45 H           2.0000    1.9746    0.0000 H       1  UNL1        0.2923
     46 H           3.6540   -3.7815    0.0000 H       1  UNL1        0.0342
     47 H           4.2764   -4.3991    0.0000 H       1  UNL1        0.0342
     48 H           4.8940   -3.7768    0.0000 H       1  UNL1        0.0342
     49 H           3.7220    4.3149    0.0000 H       1  UNL1        0.0660
     50 H           2.8742    4.0912    0.0000 H       1  UNL1        0.0660
     51 H           3.0979    3.2434    0.0000 H       1  UNL1        0.0660
@<TRIPOS>BOND
     1     1    10    1
     2     1    14    1
     3     2    11    1
     4     2    15    1
     5     3    13    1
     6     3    28    1
     7     4    16   ar
     8     4    27   ar
     9     5    17    1
    10     5    29    1
    11     6    22    1
    12     6    31    1
    13     7    25    1
    14     7    45    1
    15     8    27    2
    16     9    28    2
    17    10    11    1
    18    10    12    1
    19    10    32    1
    20    11    13    1
    21    11    33    1
    22    12    19   ar
    23    12    20   ar
    24    13    34    1
    25    13    35    1
    26    14    15   ar
    27    14    16   ar
    28    15    17   ar
    29    16    18   ar
    30    17    21   ar
    31    18    21   ar
    32    18    24   ar
    33    19    22   ar
    34    19    36    1
    35    20    23   ar
    36    20    37    1
    37    21    38    1
    38    22    25   ar
    39    23    25   ar
    40    23    39    1
    41    24    26   ar
    42    24    40    1
    43    26    27   ar
    44    26    41    1
    45    28    30    1
    46    29    42    1
    47    29    43    1
    48    29    44    1
    49    30    46    1
    50    30    47    1
    51    30    48    1
    52    31    49    1
    53    31    50    1
    54    31    51    1
