@<TRIPOS>MOLECULE
IMPHY008849
 65 71 0 0 0
SMALL
GASTEIGER

@<TRIPOS>ATOM
      1 O           5.9998   -5.4968    0.0000 O.3     1  UNL1       -0.3285
      2 O          12.9604   -0.2387    0.0000 O.3     1  UNL1       -0.3334
      3 O           6.0159   -3.4052    0.0000 O.3     1  UNL1       -0.2205
      4 O           5.1396   -3.9935    0.0000 O.3     1  UNL1       -0.3256
      5 O          14.2496    0.9180    0.0000 O.3     1  UNL1       -0.3257
      6 O           4.2639   -6.4901    0.0000 O.3     1  UNL1       -0.2149
      7 O          14.2961   -1.7273    0.0000 O.3     1  UNL1       -0.2149
      8 O           2.5357   -5.4835    0.0000 O.3     1  UNL1       -0.2174
      9 O          16.2531   -1.3149    0.0000 O.3     1  UNL1       -0.2174
     10 O           2.5434   -3.4835    0.0000 O.3     1  UNL1       -0.2176
     11 O          16.8745    0.5862    0.0000 O.3     1  UNL1       -0.2176
     12 O          14.8709    2.8191    0.0000 O.3     1  UNL1       -0.3259
     13 O           5.1473   -1.9935    0.0000 O.3     1  UNL1       -0.2176
     14 O          16.1601    3.9758    0.0000 O.3     1  UNL1       -0.3284
     15 O          13.5352    4.3077    0.0000 O.3     1  UNL1       -0.2149
     16 O          14.1566    6.2087    0.0000 O.3     1  UNL1       -0.2174
     17 O          16.1136    6.6212    0.0000 O.3     1  UNL1       -0.2177
     18 C          10.5269   -3.9445    0.0000 C.3     1  UNL1        0.0000
     19 C          11.3929   -3.4445    0.0000 C.3     1  UNL1        0.0001
     20 C           9.6608   -3.4445    0.0000 C.3     1  UNL1        0.0001
     21 C           8.7508   -3.9513    0.0000 C.3     1  UNL1        0.0026
     22 C          11.3929   -2.4445    0.0000 C.3     1  UNL1        0.0023
     23 C           8.7428   -4.9929    0.0000 C.3     1  UNL1        0.0024
     24 C          10.5429   -4.9860    0.0000 C.3     1  UNL1        0.0000
     25 C          12.3391   -2.1397    0.0000 C.3     1  UNL1        0.0251
     26 C           9.6608   -2.4445    0.0000 C.3     1  UNL1        0.0000
     27 C          12.3391   -3.7492    0.0000 C.3     1  UNL1        0.0001
     28 C          10.5269   -1.9445    0.0000 C.3     1  UNL1        0.0001
     29 C           9.6449   -5.5137    0.0000 C.3     1  UNL1        0.0001
     30 C           7.8074   -5.5426    0.0000 C.3     1  UNL1        0.0276
     31 C          12.9227   -2.9445    0.0000 C.3     1  UNL1        0.0023
     32 C           7.8240   -3.3872    0.0000 C.3     1  UNL1        0.0354
     33 C          11.1697   -4.7105    0.0000 C.3     1  UNL1        0.0000
     34 C          11.7350   -4.3841    0.0000 C.3     1  UNL1        0.0000
     35 C           6.8678   -5.0001    0.0000 C.3     1  UNL1        0.1479
     36 C           8.7586   -2.9513    0.0000 C.3     1  UNL1        0.0001
     37 C           6.8761   -3.9152    0.0000 C.3     1  UNL1        0.1790
     38 C          12.6498   -1.1892    0.0000 C.3     1  UNL1        0.0956
     39 C           8.3107   -6.4067    0.0000 C.3     1  UNL1        0.0025
     40 C           7.3107   -6.4106    0.0000 C.3     1  UNL1        0.0025
     41 C          13.6003   -1.4999    0.0000 C.3     1  UNL1        0.0319
     42 C          11.6993   -0.8786    0.0000 C.3     1  UNL1        0.0297
     43 C          13.8065   -2.4784    0.0000 C.3     1  UNL1        0.0278
     44 C           5.1357   -4.9935    0.0000 C.3     1  UNL1        0.2695
     45 C          13.9389   -0.0325    0.0000 C.3     1  UNL1        0.2693
     46 C           4.2678   -5.4901    0.0000 C.3     1  UNL1        0.2406
     47 C          14.6068   -0.7768    0.0000 C.3     1  UNL1        0.2406
     48 C          14.7570   -2.7890    0.0000 C.2     1  UNL1       -0.0345
     49 C           3.4037   -4.9868    0.0000 C.3     1  UNL1        0.2198
     50 C          15.5853   -0.5706    0.0000 C.3     1  UNL1        0.2198
     51 C           4.2755   -3.4901    0.0000 C.3     1  UNL1        0.1835
     52 C          15.2281    1.1243    0.0000 C.3     1  UNL1        0.1802
     53 C           3.4075   -3.9868    0.0000 C.3     1  UNL1        0.2144
     54 C          15.8960    0.3800    0.0000 C.3     1  UNL1        0.2143
     55 C          14.9633   -3.7676    0.0000 C.2     1  UNL1       -0.0478
     56 C           4.2793   -2.4901    0.0000 C.3     1  UNL1        0.2142
     57 C          15.5388    2.0748    0.0000 C.3     1  UNL1        0.1770
     58 C          14.2190   -4.4354    0.0000 C.3     1  UNL1        0.0260
     59 C          15.9138   -4.0782    0.0000 C.3     1  UNL1        0.0260
     60 C          15.1816    3.7696    0.0000 C.3     1  UNL1        0.2695
     61 C          14.5138    4.5139    0.0000 C.3     1  UNL1        0.2406
     62 C          14.8244    5.4644    0.0000 C.3     1  UNL1        0.2197
     63 C          16.4708    4.9263    0.0000 C.3     1  UNL1        0.1508
     64 C          15.8029    5.6706    0.0000 C.3     1  UNL1        0.2118
     65 C          17.4493    5.1326    0.0000 C.3     1  UNL1        0.0350
@<TRIPOS>BOND
     1     1    35    1
     2     2    38    1
     3     3    37    1
     4     4    44    1
     5     4    51    1
     6     5    45    1
     7     5    52    1
     8    12    57    1
     9    13    56    1
    10    14    60    1
    11    14    63    1
    12    18    19    1
    13    18    20    1
    14    18    24    1
    15    18    33    1
    16    19    22    1
    17    19    27    1
    18    19    34    1
    19    20    21    1
    20    20    26    1
    21    21    23    1
    22    21    32    1
    23    21    36    1
    24    22    25    1
    25    22    28    1
    26    23    29    1
    27    23    30    1
    28    24    29    1
    29    25    31    1
    30    25    38    1
    31    26    28    1
    32    27    31    1
    33    30    35    1
    34    30    39    1
    35    30    40    1
    36    32    37    1
    37    35    37    1
    38    38    41    1
    39    38    42    1
    40    41    43    1
    41    43    48    1
    42    44     1    1
    43    44    46    1
    44    45     2    1
    45    45    47    1
    46    46     6    1
    47    46    49    1
    48    47     7    1
    49    47    50    1
    50    48    55    2
    51    49     8    1
    52    49    53    1
    53    50     9    1
    54    50    54    1
    55    51    53    1
    56    51    56    1
    57    52    54    1
    58    52    57    1
    59    53    10    1
    60    54    11    1
    61    55    58    1
    62    55    59    1
    63    60    12    1
    64    60    61    1
    65    61    15    1
    66    61    62    1
    67    62    16    1
    68    62    64    1
    69    63    64    1
    70    63    65    1
    71    64    17    1
