@<TRIPOS>MOLECULE
IMPHY014267
 53 55 0 0 0
SMALL
GASTEIGER

@<TRIPOS>ATOM
      1 O           4.6660   -2.6296    0.0000 O.3     1  UNL1       -0.3886
      2 O           6.3981   -1.6296    0.0000 O.3     1  UNL1       -0.3845
      3 O           7.3022   -0.1328    0.0000 O.2     1  UNL1       -0.5060
      4 O           3.7782    1.9018    0.0000 O.2     1  UNL1       -0.2835
      5 O           5.5442    2.9396    0.0000 O.2     1  UNL1       -0.2834
      6 C           3.8000   -1.1296    0.0000 C.3     1  UNL1        0.0024
      7 C           3.8000   -0.1296    0.0000 C.3     1  UNL1        0.0029
      8 C           2.9061   -1.6643    0.0000 C.3     1  UNL1       -0.0288
      9 C           2.9061    0.4050    0.0000 C.3     1  UNL1       -0.0431
     10 C           4.6660   -1.6296    0.0000 C.3     1  UNL1        0.0894
     11 C           2.0000   -1.1504    0.0000 C.3     1  UNL1       -0.0475
     12 C           2.0000   -0.1088    0.0000 C.3     1  UNL1       -0.0518
     13 C           4.6660    0.3704    0.0000 C.2     1  UNL1        0.0186
     14 C           5.5321   -1.1296    0.0000 C.3     1  UNL1        0.1100
     15 C           3.8000    0.8704    0.0000 C.3     1  UNL1       -0.0551
     16 C           5.5321   -0.1296    0.0000 C.2     1  UNL1        0.0326
     17 C           2.4161   -2.5360    0.0000 C.3     1  UNL1       -0.0594
     18 C           3.4160   -2.5245    0.0000 C.3     1  UNL1       -0.0594
     19 C           4.6500    1.4119    0.0000 C.2     1  UNL1        0.2298
     20 C           6.4421    0.3772    0.0000 C.2     1  UNL1        0.1301
     21 C           6.4501    1.4188    0.0000 C.2     1  UNL1        0.0474
     22 C           5.5480    1.9396    0.0000 C.2     1  UNL1        0.2324
     23 C           7.3180    1.9155    0.0000 C.3     1  UNL1       -0.0143
     24 C           7.3219    2.9155    0.0000 C.3     1  UNL1       -0.0584
     25 C           8.1821    1.4121    0.0000 C.3     1  UNL1       -0.0584
     26 H           3.8066   -1.9796    0.0000 H       1  UNL1        0.0340
     27 H           3.3107    0.8748    0.0000 H       1  UNL1        0.0274
     28 H           2.5124    0.8841    0.0000 H       1  UNL1        0.0274
     29 H           5.2030   -1.9396    0.0000 H       1  UNL1        0.0626
     30 H           1.3891   -1.0443    0.0000 H       1  UNL1        0.0271
     31 H           1.7909   -1.7341    0.0000 H       1  UNL1        0.0271
     32 H           1.7909    0.4749    0.0000 H       1  UNL1        0.0266
     33 H           1.3891   -0.2149    0.0000 H       1  UNL1        0.0266
     34 H           6.0690   -0.8196    0.0000 H       1  UNL1        0.0671
     35 H           4.4200    0.8704    0.0000 H       1  UNL1        0.0238
     36 H           3.8000    1.4904    0.0000 H       1  UNL1        0.0238
     37 H           3.1800    0.8704    0.0000 H       1  UNL1        0.0238
     38 H           1.8756   -2.2323    0.0000 H       1  UNL1        0.0235
     39 H           2.1123   -3.0765    0.0000 H       1  UNL1        0.0235
     40 H           2.9566   -2.8398    0.0000 H       1  UNL1        0.0235
     41 H           2.8827   -2.8407    0.0000 H       1  UNL1        0.0235
     42 H           3.7322   -3.0578    0.0000 H       1  UNL1        0.0235
     43 H           3.9494   -2.2083    0.0000 H       1  UNL1        0.0235
     44 H           5.2030   -2.9396    0.0000 H       1  UNL1        0.2099
     45 H           6.3981   -2.2496    0.0000 H       1  UNL1        0.2103
     46 H           7.8562    2.2234    0.0000 H       1  UNL1        0.0346
     47 H           7.8427    0.1710    0.0000 H       1  UNL1        0.2922
     48 H           7.9419    2.9131    0.0000 H       1  UNL1        0.0235
     49 H           7.3243    3.5355    0.0000 H       1  UNL1        0.0235
     50 H           6.7019    2.9179    0.0000 H       1  UNL1        0.0235
     51 H           7.8701    0.8764    0.0000 H       1  UNL1        0.0235
     52 H           8.7179    1.1001    0.0000 H       1  UNL1        0.0235
     53 H           8.4942    1.9479    0.0000 H       1  UNL1        0.0235
@<TRIPOS>BOND
     1    10     1    1
     2     1    44    1
     3    14     2    1
     4     2    45    1
     5     3    20    1
     6     3    47    1
     7     4    19    2
     8     5    22    2
     9     6     7    1
    10     6     8    1
    11     6    10    1
    12     6    26    1
    13     7     9    1
    14     7    13    1
    15     7    15    1
    16     8    11    1
    17     8    17    1
    18     8    18    1
    19     9    12    1
    20     9    27    1
    21     9    28    1
    22    10    14    1
    23    10    29    1
    24    11    12    1
    25    11    30    1
    26    11    31    1
    27    12    32    1
    28    12    33    1
    29    13    16    2
    30    13    19    1
    31    14    16    1
    32    14    34    1
    33    15    35    1
    34    15    36    1
    35    15    37    1
    36    16    20    1
    37    17    38    1
    38    17    39    1
    39    17    40    1
    40    18    41    1
    41    18    42    1
    42    18    43    1
    43    19    22    1
    44    20    21    2
    45    21    22    1
    46    21    23    1
    47    23    24    1
    48    23    25    1
    49    23    46    1
    50    24    48    1
    51    24    49    1
    52    24    50    1
    53    25    51    1
    54    25    52    1
    55    25    53    1
