@<TRIPOS>MOLECULE
IMPHY010588
 69 73 0 0 0
SMALL
GASTEIGER

@<TRIPOS>ATOM
      1 O           5.9407   -2.2417    0.0000 O.3     1  UNL1       -0.3512
      2 O           8.6353   -2.7833    0.0000 O.3     1  UNL1       -0.4539
      3 O           5.1029   -2.7695    0.0000 O.2     1  UNL1       -0.2967
      4 O           3.6014    1.1831    0.0000 O.3     1  UNL1       -0.3907
      5 O           7.7294   -4.3041    0.0000 O.2     1  UNL1       -0.2478
      6 O           2.2143   -0.5538    0.0000 O.3     1  UNL1       -0.3888
      7 O          10.5562   -0.0169    0.0000 O.2     1  UNL1       -0.4706
      8 O           5.1314    3.7636    0.0000 O.3     1  UNL1       -0.4806
      9 O           3.6214    2.9150    0.0000 O.2     1  UNL1       -0.2509
     10 C           6.8513   -1.7349    0.0000 C.3     1  UNL1        0.1283
     11 C           5.9852   -1.2349    0.0000 C.3     1  UNL1        0.0621
     12 C           7.7173   -1.2349    0.0000 C.3     1  UNL1        0.0422
     13 C           5.9852   -0.2349    0.0000 C.3     1  UNL1       -0.0180
     14 C           6.8352   -2.7764    0.0000 C.3     1  UNL1        0.1861
     15 C           5.0913    0.2998    0.0000 C.3     1  UNL1        0.0040
     16 C           7.7173   -0.2349    0.0000 C.3     1  UNL1       -0.0408
     17 C           6.8513    0.2651    0.0000 C.3     1  UNL1       -0.0479
     18 C           4.1852   -0.2141    0.0000 C.3     1  UNL1        0.0020
     19 C           8.6273   -1.7417    0.0000 C.3     1  UNL1        0.1391
     20 C           5.0913   -1.7695    0.0000 C.2     1  UNL1        0.1427
     21 C           6.6354   -2.3606    0.0000 C.3     1  UNL1       -0.0498
     22 C           4.1852   -1.2557    0.0000 C.3     1  UNL1        0.0125
     23 C           8.5833   -0.7349    0.0000 C.3     1  UNL1       -0.0531
     24 C           7.7332   -3.3041    0.0000 C.2     1  UNL1        0.3398
     25 C           4.6014    1.1715    0.0000 C.3     1  UNL1        0.0713
     26 C           5.6013    1.1600    0.0000 C.3     1  UNL1       -0.0566
     27 C           3.1998   -0.3839    0.0000 C.3     1  UNL1        0.0643
     28 C           9.4875   -1.2317    0.0000 C.ar    1  UNL1        0.0310
     29 C           5.1113    2.0317    0.0000 C.3     1  UNL1        0.0712
     30 C           3.3696   -1.3694    0.0000 C.3     1  UNL1       -0.0360
     31 C           3.0299    0.6016    0.0000 C.3     1  UNL1       -0.0360
     32 C          10.4057   -1.6279    0.0000 C.ar    1  UNL1       -0.0172
     33 C           9.5805   -0.2361    0.0000 C.ar    1  UNL1        0.0984
     34 C           4.6214    2.9035    0.0000 C.2     1  UNL1        0.3072
     35 C          11.0662   -0.8771    0.0000 C.ar    1  UNL1        0.0921
     36 H           5.9918    0.6151    0.0000 H       1  UNL1        0.0317
     37 H           6.4018   -3.5076    0.0000 H       1  UNL1        0.0743
     38 H           8.3279   -0.3425    0.0000 H       1  UNL1        0.0273
     39 H           7.9294    0.3477    0.0000 H       1  UNL1        0.0273
     40 H           7.2498    0.7401    0.0000 H       1  UNL1        0.0269
     41 H           6.4527    0.7401    0.0000 H       1  UNL1        0.0269
     42 H           3.6376   -0.8641    0.0000 H       1  UNL1        0.0339
     43 H           9.1672   -2.0465    0.0000 H       1  UNL1        0.0793
     44 H           6.0984   -2.6707    0.0000 H       1  UNL1        0.0240
     45 H           6.9454   -2.8976    0.0000 H       1  UNL1        0.0240
     46 H           7.1723   -2.0506    0.0000 H       1  UNL1        0.0240
     47 H           3.5744   -1.1496    0.0000 H       1  UNL1        0.0346
     48 H           3.9762   -1.8394    0.0000 H       1  UNL1        0.0346
     49 H           8.8933   -1.2718    0.0000 H       1  UNL1        0.0237
     50 H           9.1203   -0.4249    0.0000 H       1  UNL1        0.0237
     51 H           8.2733   -0.1979    0.0000 H       1  UNL1        0.0237
     52 H           4.2976    1.7120    0.0000 H       1  UNL1        0.0604
     53 H           6.1346    0.8438    0.0000 H       1  UNL1        0.0236
     54 H           5.9175    1.6933    0.0000 H       1  UNL1        0.0236
     55 H           5.0680    1.4762    0.0000 H       1  UNL1        0.0236
     56 H           5.5816    1.6277    0.0000 H       1  UNL1        0.0403
     57 H           5.5909    2.4247    0.0000 H       1  UNL1        0.0403
     58 H           2.7586   -1.4746    0.0000 H       1  UNL1        0.0257
     59 H           3.4748   -1.9803    0.0000 H       1  UNL1        0.0257
     60 H           3.9806   -1.2641    0.0000 H       1  UNL1        0.0257
     61 H           3.6409    0.7069    0.0000 H       1  UNL1        0.0257
     62 H           2.9246    1.2125    0.0000 H       1  UNL1        0.0257
     63 H           2.4189    0.4962    0.0000 H       1  UNL1        0.0257
     64 H           3.2976    1.7236    0.0000 H       1  UNL1        0.2098
     65 H           2.0000   -1.1356    0.0000 H       1  UNL1        0.2101
     66 H          10.5416   -2.2328    0.0000 H       1  UNL1        0.0653
     67 H           9.1150    0.1734    0.0000 H       1  UNL1        0.1033
     68 H          11.6835   -0.9347    0.0000 H       1  UNL1        0.1029
     69 H           4.8276    4.3041    0.0000 H       1  UNL1        0.2951
@<TRIPOS>BOND
     1    10     1    1
     2     1    14    1
     3     2    19    1
     4     2    24    1
     5     3    20    2
     6     4    25    1
     7     4    64    1
     8     5    24    2
     9     6    27    1
    10     6    65    1
    11     7    33   ar
    12     7    35   ar
    13     8    34    1
    14     8    69    1
    15     9    34    2
    16    10    11    1
    17    10    12    1
    18    10    14    1
    19    11    13    1
    20    11    20    1
    21    11    21    1
    22    12    16    1
    23    12    19    1
    24    12    23    1
    25    13    15    1
    26    13    17    1
    27    13    36    1
    28    14    24    1
    29    14    37    1
    30    15    18    1
    31    15    25    1
    32    15    26    1
    33    16    17    1
    34    16    38    1
    35    16    39    1
    36    17    40    1
    37    17    41    1
    38    18    22    1
    39    18    27    1
    40    18    42    1
    41    19    28    1
    42    19    43    1
    43    20    22    1
    44    21    44    1
    45    21    45    1
    46    21    46    1
    47    22    47    1
    48    22    48    1
    49    23    49    1
    50    23    50    1
    51    23    51    1
    52    25    29    1
    53    25    52    1
    54    26    53    1
    55    26    54    1
    56    26    55    1
    57    27    30    1
    58    27    31    1
    59    28    32   ar
    60    28    33   ar
    61    29    34    1
    62    29    56    1
    63    29    57    1
    64    30    58    1
    65    30    59    1
    66    30    60    1
    67    31    61    1
    68    31    62    1
    69    31    63    1
    70    32    35   ar
    71    32    66    1
    72    33    67    1
    73    35    68    1
