@<TRIPOS>MOLECULE
IMPHY013233
 110 109 0 0 0
SMALL
GASTEIGER

@<TRIPOS>ATOM
      1 O          22.7846   -1.0950    0.0000 O.3     1  UNL1       -0.3918
      2 O           6.3301    1.4050    0.0000 O.2     1  UNL1       -0.2974
      3 C          22.7846   -0.0950    0.0000 C.3     1  UNL1        0.0553
      4 C          23.6506    0.4050    0.0000 C.3     1  UNL1       -0.0269
      5 C          21.9186    0.4050    0.0000 C.3     1  UNL1       -0.0269
      6 C          24.5167   -0.0950    0.0000 C.3     1  UNL1       -0.0507
      7 C          21.0526   -0.0950    0.0000 C.3     1  UNL1       -0.0507
      8 C          25.3827    0.4050    0.0000 C.3     1  UNL1       -0.0530
      9 C          20.1865    0.4050    0.0000 C.3     1  UNL1       -0.0530
     10 C          26.2487   -0.0950    0.0000 C.3     1  UNL1       -0.0531
     11 C          19.3205   -0.0950    0.0000 C.3     1  UNL1       -0.0531
     12 C          27.1147    0.4050    0.0000 C.3     1  UNL1       -0.0530
     13 C          18.4545    0.4050    0.0000 C.3     1  UNL1       -0.0531
     14 C          27.9808   -0.0950    0.0000 C.3     1  UNL1       -0.0528
     15 C          17.5885   -0.0950    0.0000 C.3     1  UNL1       -0.0531
     16 C          28.8468    0.4050    0.0000 C.3     1  UNL1       -0.0505
     17 C          16.7224    0.4050    0.0000 C.3     1  UNL1       -0.0531
     18 C          29.7128   -0.0950    0.0000 C.3     1  UNL1       -0.0441
     19 C          15.8564   -0.0950    0.0000 C.3     1  UNL1       -0.0531
     20 C          14.9904    0.4050    0.0000 C.3     1  UNL1       -0.0531
     21 C          14.1244   -0.0950    0.0000 C.3     1  UNL1       -0.0531
     22 C          13.2583    0.4050    0.0000 C.3     1  UNL1       -0.0531
     23 C          12.3923   -0.0950    0.0000 C.3     1  UNL1       -0.0531
     24 C          11.5263    0.4050    0.0000 C.3     1  UNL1       -0.0531
     25 C          10.6603   -0.0950    0.0000 C.3     1  UNL1       -0.0531
     26 C          30.5788    0.4050    0.0000 C.3     1  UNL1       -0.0533
     27 C           9.7942    0.4050    0.0000 C.3     1  UNL1       -0.0530
     28 C          29.7128   -1.0950    0.0000 C.3     1  UNL1       -0.0624
     29 C           8.9282   -0.0950    0.0000 C.3     1  UNL1       -0.0527
     30 C           8.0622    0.4050    0.0000 C.3     1  UNL1       -0.0464
     31 C          31.4449   -0.0950    0.0000 C.3     1  UNL1       -0.0650
     32 C           7.1962   -0.0950    0.0000 C.3     1  UNL1        0.0058
     33 C           6.3301    0.4050    0.0000 C.2     1  UNL1        0.1334
     34 C           5.4641   -0.0950    0.0000 C.3     1  UNL1        0.0058
     35 C           4.5981    0.4050    0.0000 C.3     1  UNL1       -0.0464
     36 C           3.7320   -0.0950    0.0000 C.3     1  UNL1       -0.0529
     37 C           2.8660    0.4050    0.0000 C.3     1  UNL1       -0.0559
     38 C           2.0000   -0.0950    0.0000 C.3     1  UNL1       -0.0653
     39 H          22.2477   -0.4050    0.0000 H       1  UNL1        0.0593
     40 H          24.0492    0.8799    0.0000 H       1  UNL1        0.0290
     41 H          23.2521    0.8799    0.0000 H       1  UNL1        0.0290
     42 H          22.3171    0.8799    0.0000 H       1  UNL1        0.0290
     43 H          21.5201    0.8799    0.0000 H       1  UNL1        0.0290
     44 H          24.1181   -0.5699    0.0000 H       1  UNL1        0.0266
     45 H          24.9152   -0.5699    0.0000 H       1  UNL1        0.0266
     46 H          20.6540   -0.5699    0.0000 H       1  UNL1        0.0266
     47 H          21.4511   -0.5699    0.0000 H       1  UNL1        0.0266
     48 H          25.7812    0.8799    0.0000 H       1  UNL1        0.0265
     49 H          24.9842    0.8799    0.0000 H       1  UNL1        0.0265
     50 H          20.5851    0.8799    0.0000 H       1  UNL1        0.0265
     51 H          19.7880    0.8799    0.0000 H       1  UNL1        0.0265
     52 H          25.8502   -0.5699    0.0000 H       1  UNL1        0.0265
     53 H          26.6472   -0.5699    0.0000 H       1  UNL1        0.0265
     54 H          18.9220   -0.5699    0.0000 H       1  UNL1        0.0265
     55 H          19.7190   -0.5699    0.0000 H       1  UNL1        0.0265
     56 H          27.5133    0.8799    0.0000 H       1  UNL1        0.0265
     57 H          26.7162    0.8799    0.0000 H       1  UNL1        0.0265
     58 H          18.8530    0.8799    0.0000 H       1  UNL1        0.0265
     59 H          18.0560    0.8799    0.0000 H       1  UNL1        0.0265
     60 H          27.5822   -0.5699    0.0000 H       1  UNL1        0.0265
     61 H          28.3793   -0.5699    0.0000 H       1  UNL1        0.0265
     62 H          17.1899   -0.5699    0.0000 H       1  UNL1        0.0265
     63 H          17.9870   -0.5699    0.0000 H       1  UNL1        0.0265
     64 H          29.2453    0.8799    0.0000 H       1  UNL1        0.0268
     65 H          28.4483    0.8799    0.0000 H       1  UNL1        0.0268
     66 H          17.1210    0.8799    0.0000 H       1  UNL1        0.0265
     67 H          16.3239    0.8799    0.0000 H       1  UNL1        0.0265
     68 H          29.1759   -0.4050    0.0000 H       1  UNL1        0.0298
     69 H          15.4579   -0.5699    0.0000 H       1  UNL1        0.0265
     70 H          16.2549   -0.5699    0.0000 H       1  UNL1        0.0265
     71 H          15.3889    0.8799    0.0000 H       1  UNL1        0.0265
     72 H          14.5919    0.8799    0.0000 H       1  UNL1        0.0265
     73 H          13.7258   -0.5699    0.0000 H       1  UNL1        0.0265
     74 H          14.5229   -0.5699    0.0000 H       1  UNL1        0.0265
     75 H          13.6569    0.8799    0.0000 H       1  UNL1        0.0265
     76 H          12.8598    0.8799    0.0000 H       1  UNL1        0.0265
     77 H          11.9938   -0.5699    0.0000 H       1  UNL1        0.0265
     78 H          12.7908   -0.5699    0.0000 H       1  UNL1        0.0265
     79 H          11.9248    0.8799    0.0000 H       1  UNL1        0.0265
     80 H          11.1278    0.8799    0.0000 H       1  UNL1        0.0265
     81 H          10.2617   -0.5699    0.0000 H       1  UNL1        0.0265
     82 H          11.0588   -0.5699    0.0000 H       1  UNL1        0.0265
     83 H          30.9774    0.8799    0.0000 H       1  UNL1        0.0265
     84 H          30.1803    0.8799    0.0000 H       1  UNL1        0.0265
     85 H          10.1928    0.8799    0.0000 H       1  UNL1        0.0265
     86 H           9.3957    0.8799    0.0000 H       1  UNL1        0.0265
     87 H          29.0928   -1.0950    0.0000 H       1  UNL1        0.0232
     88 H          29.7128   -1.7150    0.0000 H       1  UNL1        0.0232
     89 H          30.3328   -1.0950    0.0000 H       1  UNL1        0.0232
     90 H           8.5297   -0.5699    0.0000 H       1  UNL1        0.0265
     91 H           9.3267   -0.5699    0.0000 H       1  UNL1        0.0265
     92 H          22.2477   -1.4050    0.0000 H       1  UNL1        0.2098
     93 H           8.4607    0.8799    0.0000 H       1  UNL1        0.0269
     94 H           7.6636    0.8799    0.0000 H       1  UNL1        0.0269
     95 H          31.1349   -0.6319    0.0000 H       1  UNL1        0.0230
     96 H          31.9818   -0.4050    0.0000 H       1  UNL1        0.0230
     97 H          31.7549    0.4419    0.0000 H       1  UNL1        0.0230
     98 H           6.7976   -0.5699    0.0000 H       1  UNL1        0.0342
     99 H           7.5947   -0.5699    0.0000 H       1  UNL1        0.0342
    100 H           5.0656   -0.5699    0.0000 H       1  UNL1        0.0342
    101 H           5.8626   -0.5699    0.0000 H       1  UNL1        0.0342
    102 H           4.9966    0.8799    0.0000 H       1  UNL1        0.0269
    103 H           4.1996    0.8799    0.0000 H       1  UNL1        0.0269
    104 H           3.3335   -0.5699    0.0000 H       1  UNL1        0.0265
    105 H           4.1306   -0.5699    0.0000 H       1  UNL1        0.0265
    106 H           3.2646    0.8799    0.0000 H       1  UNL1        0.0263
    107 H           2.4675    0.8799    0.0000 H       1  UNL1        0.0263
    108 H           1.6900    0.4419    0.0000 H       1  UNL1        0.0230
    109 H           1.4631   -0.4050    0.0000 H       1  UNL1        0.0230
    110 H           2.3100   -0.6319    0.0000 H       1  UNL1        0.0230
@<TRIPOS>BOND
     1     1     3    1
     2     1    92    1
     3     2    33    2
     4     3     4    1
     5     3     5    1
     6     3    39    1
     7     4     6    1
     8     4    40    1
     9     4    41    1
    10     5     7    1
    11     5    42    1
    12     5    43    1
    13     6     8    1
    14     6    44    1
    15     6    45    1
    16     7     9    1
    17     7    46    1
    18     7    47    1
    19     8    10    1
    20     8    48    1
    21     8    49    1
    22     9    11    1
    23     9    50    1
    24     9    51    1
    25    10    12    1
    26    10    52    1
    27    10    53    1
    28    11    13    1
    29    11    54    1
    30    11    55    1
    31    12    14    1
    32    12    56    1
    33    12    57    1
    34    13    15    1
    35    13    58    1
    36    13    59    1
    37    14    16    1
    38    14    60    1
    39    14    61    1
    40    15    17    1
    41    15    62    1
    42    15    63    1
    43    16    18    1
    44    16    64    1
    45    16    65    1
    46    17    19    1
    47    17    66    1
    48    17    67    1
    49    18    26    1
    50    18    28    1
    51    18    68    1
    52    19    20    1
    53    19    69    1
    54    19    70    1
    55    20    21    1
    56    20    71    1
    57    20    72    1
    58    21    22    1
    59    21    73    1
    60    21    74    1
    61    22    23    1
    62    22    75    1
    63    22    76    1
    64    23    24    1
    65    23    77    1
    66    23    78    1
    67    24    25    1
    68    24    79    1
    69    24    80    1
    70    25    27    1
    71    25    81    1
    72    25    82    1
    73    26    31    1
    74    26    83    1
    75    26    84    1
    76    27    29    1
    77    27    85    1
    78    27    86    1
    79    28    87    1
    80    28    88    1
    81    28    89    1
    82    29    30    1
    83    29    90    1
    84    29    91    1
    85    30    32    1
    86    30    93    1
    87    30    94    1
    88    31    95    1
    89    31    96    1
    90    31    97    1
    91    32    33    1
    92    32    98    1
    93    32    99    1
    94    33    34    1
    95    34    35    1
    96    34   100    1
    97    34   101    1
    98    35    36    1
    99    35   102    1
   100    35   103    1
   101    36    37    1
   102    36   104    1
   103    36   105    1
   104    37    38    1
   105    37   106    1
   106    37   107    1
   107    38   108    1
   108    38   109    1
   109    38   110    1
