@<TRIPOS>MOLECULE
IMPHY003475
 37 38 0 0 0
SMALL
GASTEIGER

@<TRIPOS>ATOM
      1 O           6.0010    0.6550    0.0000 O.3     1  UNL1       -0.3405
      2 O           5.1350   -0.8450    0.0000 O.3     1  UNL1       -0.3461
      3 O           7.7331   -1.3450    0.0000 O.3     1  UNL1       -0.3462
      4 O           7.7331    1.6550    0.0000 O.3     1  UNL1       -0.3864
      5 O           4.2690    1.6550    0.0000 O.3     1  UNL1       -0.3841
      6 O           2.5369    0.6550    0.0000 O.3     1  UNL1       -0.3864
      7 O           9.4651    0.6550    0.0000 O.3     1  UNL1       -0.3841
      8 O           2.5369   -1.3450    0.0000 O.3     1  UNL1       -0.3869
      9 O           9.4651   -1.3450    0.0000 O.3     1  UNL1       -0.3649
     10 C           6.8671    0.1550    0.0000 C.3     1  UNL1        0.1134
     11 C           7.7331    0.6550    0.0000 C.3     1  UNL1        0.1141
     12 C           5.1350    0.1550    0.0000 C.3     1  UNL1        0.1880
     13 C           4.2690    0.6550    0.0000 C.3     1  UNL1        0.1341
     14 C           3.4030    0.1550    0.0000 C.3     1  UNL1        0.1137
     15 C           8.5991    0.1550    0.0000 C.3     1  UNL1        0.1339
     16 C           3.4030   -0.8450    0.0000 C.3     1  UNL1        0.1069
     17 C           6.8671   -0.8450    0.0000 C.3     1  UNL1        0.0796
     18 C           8.5991   -0.8450    0.0000 C.3     1  UNL1        0.1850
     19 C           4.2690   -1.3450    0.0000 C.3     1  UNL1        0.0792
     20 H           6.3301   -0.1550    0.0000 H       1  UNL1        0.0647
     21 H           8.2700    0.9650    0.0000 H       1  UNL1        0.0648
     22 H           5.1350    0.7750    0.0000 H       1  UNL1        0.0937
     23 H           3.7320    0.9650    0.0000 H       1  UNL1        0.0671
     24 H           3.9650    0.7750    0.0000 H       1  UNL1        0.0647
     25 H           9.1360   -0.1550    0.0000 H       1  UNL1        0.0671
     26 H           3.4030   -1.4650    0.0000 H       1  UNL1        0.0643
     27 H           6.2565   -0.7373    0.0000 H       1  UNL1        0.0587
     28 H           6.6550   -1.4276    0.0000 H       1  UNL1        0.0587
     29 H           8.5991   -1.6950    0.0000 H       1  UNL1        0.0935
     30 H           3.8705   -1.8200    0.0000 H       1  UNL1        0.0587
     31 H           4.6675   -1.8200    0.0000 H       1  UNL1        0.0587
     32 H           8.2700    1.9650    0.0000 H       1  UNL1        0.2100
     33 H           3.7320    1.9650    0.0000 H       1  UNL1        0.2101
     34 H           2.0000    0.3450    0.0000 H       1  UNL1        0.2100
     35 H          10.0021    0.3450    0.0000 H       1  UNL1        0.2101
     36 H           2.5369   -1.9650    0.0000 H       1  UNL1        0.2100
     37 H           9.4651   -1.9650    0.0000 H       1  UNL1        0.2126
@<TRIPOS>BOND
     1    10     1    1
     2    12     1    1
     3     2    12    1
     4     2    19    1
     5     3    17    1
     6     3    18    1
     7    11     4    1
     8     4    32    1
     9    13     5    1
    10     5    33    1
    11    14     6    1
    12     6    34    1
    13    15     7    1
    14     7    35    1
    15    16     8    1
    16     8    36    1
    17     9    18    1
    18     9    37    1
    19    10    11    1
    20    10    17    1
    21    10    20    1
    22    11    15    1
    23    11    21    1
    24    12    13    1
    25    12    22    1
    26    13    14    1
    27    13    23    1
    28    14    16    1
    29    14    24    1
    30    15    18    1
    31    15    25    1
    32    16    19    1
    33    16    26    1
    34    17    27    1
    35    17    28    1
    36    18    29    1
    37    19    30    1
    38    19    31    1
