@<TRIPOS>MOLECULE
IMPHY016496
 23 25 0 0 0
SMALL
GASTEIGER

@<TRIPOS>ATOM
      1 C           4.5274    0.9110    0.0000 C.3     1  UNL1       -0.0013
      2 C           5.3364    0.3232    0.0000 C.ar    1  UNL1       -0.0353
      3 C           3.7183    0.3232    0.0000 C.ar    1  UNL1       -0.0353
      4 C           5.0274   -0.6278    0.0000 C.ar    1  UNL1       -0.0141
      5 C           4.0274   -0.6278    0.0000 C.ar    1  UNL1       -0.0141
      6 C           6.3518    0.5555    0.0000 C.ar    1  UNL1       -0.0577
      7 C           2.7029    0.5555    0.0000 C.ar    1  UNL1       -0.0577
      8 C           5.7123   -1.4126    0.0000 C.ar    1  UNL1       -0.0538
      9 C           3.3424   -1.4126    0.0000 C.ar    1  UNL1       -0.0538
     10 C           7.0547   -0.2132    0.0000 C.ar    1  UNL1       -0.0615
     11 C           2.0000   -0.2132    0.0000 C.ar    1  UNL1       -0.0615
     12 C           6.7328   -1.2039    0.0000 C.ar    1  UNL1       -0.0612
     13 C           2.3219   -1.2039    0.0000 C.ar    1  UNL1       -0.0612
     14 H           4.8918    1.4126    0.0000 H       1  UNL1        0.0362
     15 H           4.1629    1.4126    0.0000 H       1  UNL1        0.0362
     16 H           6.5365    1.1473    0.0000 H       1  UNL1        0.0621
     17 H           2.5182    1.1473    0.0000 H       1  UNL1        0.0621
     18 H           5.5139   -2.0000    0.0000 H       1  UNL1        0.0624
     19 H           3.5408   -2.0000    0.0000 H       1  UNL1        0.0624
     20 H           7.6607   -0.0820    0.0000 H       1  UNL1        0.0618
     21 H           1.3940   -0.0820    0.0000 H       1  UNL1        0.0618
     22 H           7.1459   -1.6662    0.0000 H       1  UNL1        0.0618
     23 H           1.9088   -1.6662    0.0000 H       1  UNL1        0.0618
@<TRIPOS>BOND
     1     1     2    1
     2     1     3    1
     3     1    14    1
     4     1    15    1
     5     2     4   ar
     6     2     6   ar
     7     3     5   ar
     8     3     7   ar
     9     4     5    1
    10     4     8   ar
    11     5     9   ar
    12     6    10   ar
    13     6    16    1
    14     7    11   ar
    15     7    17    1
    16     8    12   ar
    17     8    18    1
    18     9    13   ar
    19     9    19    1
    20    10    12   ar
    21    10    20    1
    22    11    13   ar
    23    11    21    1
    24    12    22    1
    25    13    23    1
