@<TRIPOS>MOLECULE
IMPHY003080
 205 210 0 0 0
SMALL
GASTEIGER

@<TRIPOS>ATOM
      1 O           6.7320   -0.9057    0.0000 O.3     1  UNL1       -0.3400
      2 O           9.3301    0.5943    0.0000 O.3     1  UNL1       -0.3405
      3 O           8.4641   -1.9057    0.0000 O.3     1  UNL1       -0.3368
      4 O          10.1961   -0.9057    0.0000 O.3     1  UNL1       -0.3377
      5 O           5.8660    0.5943    0.0000 O.3     1  UNL1       -0.3393
      6 O           6.7320   -1.9057    0.0000 O.3     1  UNL1       -0.3410
      7 O           9.2783   -3.6508    0.0000 O.3     1  UNL1       -0.3405
      8 O           7.0981    1.4603    0.0000 O.3     1  UNL1       -0.3865
      9 O           8.4283   -2.1093    0.0000 O.3     1  UNL1       -0.3454
     10 O           7.6952    1.4499    0.0000 O.3     1  UNL1       -0.4545
     11 O           6.2086    2.5547    0.0000 O.3     1  UNL1       -0.4546
     12 O           7.2449   -0.7778    0.0000 O.3     1  UNL1       -0.3829
     13 O           8.4641   -3.9057    0.0000 O.3     1  UNL1       -0.4533
     14 O          11.9305   -2.1061    0.0000 O.3     1  UNL1       -0.3864
     15 O           5.8660    2.5943    0.0000 O.3     1  UNL1       -0.3451
     16 O           5.0000   -3.9057    0.0000 O.3     1  UNL1       -0.4558
     17 O          11.9463   -4.1544    0.0000 O.3     1  UNL1       -0.3865
     18 O           6.7320   -4.9057    0.0000 O.3     1  UNL1       -0.3842
     19 O           9.5774    2.4211    0.0000 O.3     1  UNL1       -0.3924
     20 O           6.7760    4.1012    0.0000 O.3     1  UNL1       -0.3396
     21 O          11.8016   -4.7772    0.0000 O.3     1  UNL1       -0.3924
     22 O           4.1340    3.5943    0.0000 O.3     1  UNL1       -0.4535
     23 O           4.1122    5.6258    0.0000 O.3     1  UNL1       -0.3853
     24 O           5.8781    6.6636    0.0000 O.3     1  UNL1       -0.3864
     25 O           8.0154    2.4106    0.0000 O.2     1  UNL1       -0.2505
     26 O           8.2876   -0.1777    0.0000 O.2     1  UNL1       -0.2505
     27 O           7.5981   -5.4057    0.0000 O.2     1  UNL1       -0.2505
     28 O           5.0000   -5.6377    0.0000 O.2     1  UNL1       -0.2505
     29 O           7.6558    6.6394    0.0000 O.3     1  UNL1       -0.3924
     30 O           4.1340    1.5943    0.0000 O.2     1  UNL1       -0.2508
     31 C           7.5981   -0.4057    0.0000 C.3     1  UNL1        0.1209
     32 C           8.4641   -0.9057    0.0000 C.3     1  UNL1        0.1410
     33 C           9.3301   -0.4057    0.0000 C.3     1  UNL1        0.1889
     34 C           7.5981    0.5943    0.0000 C.3     1  UNL1        0.1123
     35 C           8.4641    1.0943    0.0000 C.3     1  UNL1        0.1130
     36 C          10.1604   -2.1093    0.0000 C.3     1  UNL1        0.1406
     37 C           5.8660   -0.4057    0.0000 C.3     1  UNL1        0.1896
     38 C           6.7516    0.0920    0.0000 C.3     1  UNL1        0.1462
     39 C           7.5981   -2.4057    0.0000 C.3     1  UNL1        0.1998
     40 C           6.7555    1.1078    0.0000 C.3     1  UNL1        0.1726
     41 C           5.8738    1.6124    0.0000 C.3     1  UNL1        0.1705
     42 C          11.0704   -2.6161    0.0000 C.3     1  UNL1        0.1144
     43 C           5.0000    1.0943    0.0000 C.3     1  UNL1        0.1255
     44 C           7.5981   -3.4057    0.0000 C.3     1  UNL1        0.1827
     45 C           9.2943   -2.6093    0.0000 C.3     1  UNL1        0.1886
     46 C          11.0784   -3.6577    0.0000 C.3     1  UNL1        0.1119
     47 C           6.7320   -3.9057    0.0000 C.3     1  UNL1        0.1360
     48 C           5.8660   -3.4057    0.0000 C.3     1  UNL1        0.1581
     49 C          10.1763   -4.1785    0.0000 C.3     1  UNL1        0.1130
     50 C           5.8660   -2.4057    0.0000 C.3     1  UNL1        0.0984
     51 C           8.6377    2.0791    0.0000 C.3     1  UNL1        0.0730
     52 C           5.0000    2.0943    0.0000 C.3     1  UNL1        0.0807
     53 C           7.9283   -2.9753    0.0000 C.3     1  UNL1        0.0618
     54 C          10.8162   -4.9470    0.0000 C.3     1  UNL1        0.0730
     55 C           5.0000   -1.9057    0.0000 C.3     1  UNL1       -0.0350
     56 C           5.8660    3.5943    0.0000 C.3     1  UNL1        0.1993
     57 C           5.0000    4.0943    0.0000 C.3     1  UNL1        0.1816
     58 C           6.9624   -3.2341    0.0000 C.3     1  UNL1       -0.0265
     59 C           7.8847   -3.9744    0.0000 C.3     1  UNL1       -0.0265
     60 C           4.9839    5.1358    0.0000 C.3     1  UNL1        0.1251
     61 C           5.8820    5.6636    0.0000 C.3     1  UNL1        0.1130
     62 C           6.7840    5.1428    0.0000 C.3     1  UNL1        0.1131
     63 C           7.1456    2.9039    0.0000 C.2     1  UNL1        0.3104
     64 C           6.2553   -2.5270    0.0000 C.3     1  UNL1       -0.0507
     65 C           8.4612    0.8071    0.0000 C.2     1  UNL1        0.3101
     66 C           8.7281   -4.5117    0.0000 C.3     1  UNL1       -0.0507
     67 C           8.4641   -4.9057    0.0000 C.2     1  UNL1        0.3104
     68 C           7.7824    3.6749    0.0000 C.3     1  UNL1        0.0534
     69 C           4.5001   -4.7718    0.0000 C.2     1  UNL1        0.3103
     70 C           9.3301   -5.4057    0.0000 C.3     1  UNL1        0.0534
     71 C           9.4009    1.1491    0.0000 C.3     1  UNL1        0.0508
     72 C           5.2894   -2.7858    0.0000 C.3     1  UNL1       -0.0530
     73 C           7.6520    5.6394    0.0000 C.3     1  UNL1        0.0730
     74 C           3.5000   -4.7718    0.0000 C.3     1  UNL1        0.0534
     75 C           8.6845   -5.5107    0.0000 C.3     1  UNL1       -0.0532
     76 C           4.4233   -2.2858    0.0000 C.3     1  UNL1       -0.0531
     77 C           8.7686    3.5088    0.0000 C.3     1  UNL1       -0.0432
     78 C           9.3301   -6.4057    0.0000 C.3     1  UNL1       -0.0432
     79 C           7.4332    4.6119    0.0000 C.3     1  UNL1       -0.0523
     80 C           4.4233   -1.2858    0.0000 C.3     1  UNL1       -0.0531
     81 C          10.3149   -5.5793    0.0000 C.3     1  UNL1       -0.0523
     82 C          10.1669    0.5063    0.0000 C.3     1  UNL1       -0.0525
     83 C          10.0437    1.9151    0.0000 C.3     1  UNL1       -0.0525
     84 C           3.0000   -5.6378    0.0000 C.3     1  UNL1       -0.0432
     85 C           7.7974   -5.9724    0.0000 C.3     1  UNL1       -0.0559
     86 C           4.1340    2.5943    0.0000 C.2     1  UNL1        0.3076
     87 C           3.0000   -3.9056    0.0000 C.3     1  UNL1       -0.0523
     88 C           3.7162   -0.5787    0.0000 C.3     1  UNL1       -0.0530
     89 C           3.2679    2.0943    0.0000 C.3     1  UNL1        0.0450
     90 C           3.9750    0.3872    0.0000 C.3     1  UNL1       -0.0526
     91 C           3.2679    1.0943    0.0000 C.3     1  UNL1       -0.0430
     92 C           9.4054    4.2798    0.0000 C.3     1  UNL1       -0.0645
     93 C          10.1961   -6.9057    0.0000 C.3     1  UNL1       -0.0645
     94 C           2.0000   -5.6378    0.0000 C.3     1  UNL1       -0.0645
     95 C           7.7538   -6.9715    0.0000 C.3     1  UNL1       -0.0653
     96 H           7.0611   -0.0957    0.0000 H       1  UNL1        0.0651
     97 H           9.0010   -1.2157    0.0000 H       1  UNL1        0.0675
     98 H           9.8670   -0.0957    0.0000 H       1  UNL1        0.0938
     99 H           6.9992    0.4338    0.0000 H       1  UNL1        0.0647
    100 H           9.0260    1.3563    0.0000 H       1  UNL1        0.0647
    101 H          10.6995   -1.8031    0.0000 H       1  UNL1        0.0675
    102 H           5.3291   -0.7157    0.0000 H       1  UNL1        0.0938
    103 H           7.3514    0.2490    0.0000 H       1  UNL1        0.0683
    104 H           8.1350   -2.7157    0.0000 H       1  UNL1        0.0949
    105 H           6.8083    1.7256    0.0000 H       1  UNL1        0.0801
    106 H           6.4552    1.8278    0.0000 H       1  UNL1        0.0800
    107 H          11.6103   -2.9209    0.0000 H       1  UNL1        0.0648
    108 H           4.4630    0.7843    0.0000 H       1  UNL1        0.0658
    109 H           7.5981   -4.0257    0.0000 H       1  UNL1        0.0813
    110 H           8.7550   -2.9151    0.0000 H       1  UNL1        0.0938
    111 H          11.0796   -4.2777    0.0000 H       1  UNL1        0.0647
    112 H           6.1951   -4.2157    0.0000 H       1  UNL1        0.0670
    113 H           5.3291   -3.0957    0.0000 H       1  UNL1        0.0788
    114 H           9.7751   -4.6512    0.0000 H       1  UNL1        0.0647
    115 H           5.8660   -1.7857    0.0000 H       1  UNL1        0.0632
    116 H           8.5301    2.6897    0.0000 H       1  UNL1        0.0584
    117 H           8.0177    2.0791    0.0000 H       1  UNL1        0.0584
    118 H           4.7879    2.6769    0.0000 H       1  UNL1        0.0588
    119 H           4.3894    1.9866    0.0000 H       1  UNL1        0.0588
    120 H           7.4081    1.9973    0.0000 H       1  UNL1        0.2100
    121 H           8.5235   -3.1488    0.0000 H       1  UNL1        0.0597
    122 H          10.2781   -5.2549    0.0000 H       1  UNL1        0.0584
    123 H          11.0260   -5.5304    0.0000 H       1  UNL1        0.0584
    124 H           5.3100   -1.3688    0.0000 H       1  UNL1        0.0256
    125 H           4.4630   -1.5957    0.0000 H       1  UNL1        0.0256
    126 H           4.6900   -2.4426    0.0000 H       1  UNL1        0.0256
    127 H           7.2401   -1.3978    0.0000 H       1  UNL1        0.2102
    128 H           6.4005    3.2802    0.0000 H       1  UNL1        0.0949
    129 H          12.4710   -2.4099    0.0000 H       1  UNL1        0.2100
    130 H           4.4607    4.4002    0.0000 H       1  UNL1        0.0813
    131 H           6.4545   -3.5897    0.0000 H       1  UNL1        0.0290
    132 H           7.2244   -3.7960    0.0000 H       1  UNL1        0.0290
    133 H           7.2794   -3.8402    0.0000 H       1  UNL1        0.0290
    134 H           7.6474   -4.5472    0.0000 H       1  UNL1        0.0290
    135 H          12.4821   -3.8423    0.0000 H       1  UNL1        0.2100
    136 H           6.4220   -5.4426    0.0000 H       1  UNL1        0.2101
    137 H           4.4512    4.8186    0.0000 H       1  UNL1        0.0659
    138 H           6.4183    5.9746    0.0000 H       1  UNL1        0.0647
    139 H           9.6851    3.0317    0.0000 H       1  UNL1        0.2095
    140 H           7.3192    4.8297    0.0000 H       1  UNL1        0.0647
    141 H           6.7632   -2.1714    0.0000 H       1  UNL1        0.0266
    142 H           5.9932   -1.9651    0.0000 H       1  UNL1        0.0266
    143 H           9.3334   -4.6458    0.0000 H       1  UNL1        0.0266
    144 H           8.9654   -3.9388    0.0000 H       1  UNL1        0.0266
    145 H           8.1773    4.1529    0.0000 H       1  UNL1        0.0410
    146 H           9.5422   -4.8231    0.0000 H       1  UNL1        0.0410
    147 H           9.0453    1.6570    0.0000 H       1  UNL1        0.0408
    148 H           4.8509   -3.2242    0.0000 H       1  UNL1        0.0265
    149 H           5.5994   -3.3228    0.0000 H       1  UNL1        0.0265
    150 H          12.1983   -5.2537    0.0000 H       1  UNL1        0.2095
    151 H           7.8618    5.0560    0.0000 H       1  UNL1        0.0584
    152 H           8.2630    5.7447    0.0000 H       1  UNL1        0.0584
    153 H           2.8800   -4.7718    0.0000 H       1  UNL1        0.0410
    154 H           8.8709   -6.1020    0.0000 H       1  UNL1        0.0265
    155 H           9.2992   -5.4298    0.0000 H       1  UNL1        0.0265
    156 H           3.8127   -2.1782    0.0000 H       1  UNL1        0.0265
    157 H           4.2113   -2.8684    0.0000 H       1  UNL1        0.0265
    158 H           8.5610    2.9246    0.0000 H       1  UNL1        0.0270
    159 H           9.3079    3.2030    0.0000 H       1  UNL1        0.0270
    160 H           4.1050    6.2457    0.0000 H       1  UNL1        0.2101
    161 H           8.7195   -6.2980    0.0000 H       1  UNL1        0.0270
    162 H           9.1181   -6.9883    0.0000 H       1  UNL1        0.0270
    163 H           5.3400    6.9715    0.0000 H       1  UNL1        0.2100
    164 H           8.0142    4.8285    0.0000 H       1  UNL1        0.0238
    165 H           7.2166    5.1929    0.0000 H       1  UNL1        0.0238
    166 H           6.8522    4.3954    0.0000 H       1  UNL1        0.0238
    167 H           5.0222   -1.4463    0.0000 H       1  UNL1        0.0265
    168 H           4.7333   -0.7489    0.0000 H       1  UNL1        0.0265
    169 H          10.2073   -6.1899    0.0000 H       1  UNL1        0.0238
    170 H          10.9255   -5.6870    0.0000 H       1  UNL1        0.0238
    171 H          10.4226   -4.9688    0.0000 H       1  UNL1        0.0238
    172 H           9.7684    0.0314    0.0000 H       1  UNL1        0.0237
    173 H          10.6419    0.1078    0.0000 H       1  UNL1        0.0237
    174 H          10.5655    0.9813    0.0000 H       1  UNL1        0.0237
    175 H          10.5186    1.5166    0.0000 H       1  UNL1        0.0237
    176 H          10.4422    2.3901    0.0000 H       1  UNL1        0.0237
    177 H           9.5687    2.3137    0.0000 H       1  UNL1        0.0237
    178 H           2.8924   -6.2484    0.0000 H       1  UNL1        0.0270
    179 H           3.5826   -5.8498    0.0000 H       1  UNL1        0.0270
    180 H           7.6110   -5.3811    0.0000 H       1  UNL1        0.0263
    181 H           7.1828   -6.0534    0.0000 H       1  UNL1        0.0263
    182 H           3.5369   -3.5957    0.0000 H       1  UNL1        0.0238
    183 H           2.6900   -3.3687    0.0000 H       1  UNL1        0.0238
    184 H           2.4630   -4.2156    0.0000 H       1  UNL1        0.0238
    185 H           3.1543   -0.3167    0.0000 H       1  UNL1        0.0265
    186 H           3.3606   -1.0866    0.0000 H       1  UNL1        0.0265
    187 H           3.0559    2.6769    0.0000 H       1  UNL1        0.0377
    188 H           2.6574    1.9866    0.0000 H       1  UNL1        0.0377
    189 H           4.5370    0.1252    0.0000 H       1  UNL1        0.0265
    190 H           4.3307    0.8951    0.0000 H       1  UNL1        0.0265
    191 H           2.6691    1.2548    0.0000 H       1  UNL1        0.0270
    192 H           2.9579    0.5574    0.0000 H       1  UNL1        0.0270
    193 H           9.8834    3.8850    0.0000 H       1  UNL1        0.0230
    194 H           9.8003    4.7578    0.0000 H       1  UNL1        0.0230
    195 H           8.9274    4.6747    0.0000 H       1  UNL1        0.0230
    196 H           9.8861   -7.4426    0.0000 H       1  UNL1        0.0230
    197 H          10.7331   -7.2157    0.0000 H       1  UNL1        0.0230
    198 H          10.5061   -6.3688    0.0000 H       1  UNL1        0.0230
    199 H           8.1940    6.9473    0.0000 H       1  UNL1        0.2095
    200 H           2.0000   -5.0178    0.0000 H       1  UNL1        0.0230
    201 H           1.3800   -5.6378    0.0000 H       1  UNL1        0.0230
    202 H           2.0000   -6.2578    0.0000 H       1  UNL1        0.0230
    203 H           7.1344   -6.9444    0.0000 H       1  UNL1        0.0230
    204 H           7.7268   -7.5909    0.0000 H       1  UNL1        0.0230
    205 H           8.3732   -6.9985    0.0000 H       1  UNL1        0.0230
@<TRIPOS>BOND
     1     1    31    1
     2     1    37    1
     3     2    33    1
     4     2    35    1
     5     3    32    1
     6     3    39    1
     7     4    33    1
     8     4    36    1
     9     5    37    1
    10     5    43    1
    11     6    39    1
    12     6    50    1
    13     7    45    1
    14     7    49    1
    15     8    34    1
    16     8   120    1
    17     9    45    1
    18     9    53    1
    19    10    40    1
    20    10    65    1
    21    11    41    1
    22    11    63    1
    23    12    38    1
    24    12   127    1
    25    13    44    1
    26    13    67    1
    27    14    42    1
    28    14   129    1
    29    15    52    1
    30    15    56    1
    31    16    48    1
    32    16    69    1
    33    17    46    1
    34    17   135    1
    35    18    47    1
    36    18   136    1
    37    19    51    1
    38    19   139    1
    39    20    56    1
    40    20    62    1
    41    21    54    1
    42    21   150    1
    43    22    57    1
    44    22    86    1
    45    23    60    1
    46    23   160    1
    47    24    61    1
    48    24   163    1
    49    25    63    2
    50    26    65    2
    51    27    67    2
    52    28    69    2
    53    29    73    1
    54    29   199    1
    55    30    86    2
    56    31    32    1
    57    31    34    1
    58    31    96    1
    59    32    33    1
    60    32    97    1
    61    33    98    1
    62    34    35    1
    63    34    99    1
    64    35    51    1
    65    35   100    1
    66    36    42    1
    67    36    45    1
    68    36   101    1
    69    37    38    1
    70    37   102    1
    71    38    40    1
    72    38   103    1
    73    39    44    1
    74    39   104    1
    75    40    41    1
    76    40   105    1
    77    41    43    1
    78    41   106    1
    79    42    46    1
    80    42   107    1
    81    43    52    1
    82    43   108    1
    83    44    47    1
    84    44   109    1
    85    45   110    1
    86    46    49    1
    87    46   111    1
    88    47    48    1
    89    47   112    1
    90    48    50    1
    91    48   113    1
    92    49    54    1
    93    49   114    1
    94    50    55    1
    95    50   115    1
    96    51   116    1
    97    51   117    1
    98    52   118    1
    99    52   119    1
   100    53    58    1
   101    53    59    1
   102    53   121    1
   103    54   122    1
   104    54   123    1
   105    55   124    1
   106    55   125    1
   107    55   126    1
   108    56    57    1
   109    56   128    1
   110    57    60    1
   111    57   130    1
   112    58    64    1
   113    58   131    1
   114    58   132    1
   115    59    66    1
   116    59   133    1
   117    59   134    1
   118    60    61    1
   119    60   137    1
   120    61    62    1
   121    61   138    1
   122    62    73    1
   123    62   140    1
   124    63    68    1
   125    64    72    1
   126    64   141    1
   127    64   142    1
   128    65    71    1
   129    66    75    1
   130    66   143    1
   131    66   144    1
   132    67    70    1
   133    68    77    1
   134    68    79    1
   135    68   145    1
   136    69    74    1
   137    70    78    1
   138    70    81    1
   139    70   146    1
   140    71    82    1
   141    71    83    1
   142    71   147    1
   143    72    76    1
   144    72   148    1
   145    72   149    1
   146    73   151    1
   147    73   152    1
   148    74    84    1
   149    74    87    1
   150    74   153    1
   151    75    85    1
   152    75   154    1
   153    75   155    1
   154    76    80    1
   155    76   156    1
   156    76   157    1
   157    77    92    1
   158    77   158    1
   159    77   159    1
   160    78    93    1
   161    78   161    1
   162    78   162    1
   163    79   164    1
   164    79   165    1
   165    79   166    1
   166    80    88    1
   167    80   167    1
   168    80   168    1
   169    81   169    1
   170    81   170    1
   171    81   171    1
   172    82   172    1
   173    82   173    1
   174    82   174    1
   175    83   175    1
   176    83   176    1
   177    83   177    1
   178    84    94    1
   179    84   178    1
   180    84   179    1
   181    85    95    1
   182    85   180    1
   183    85   181    1
   184    86    89    1
   185    87   182    1
   186    87   183    1
   187    87   184    1
   188    88    90    1
   189    88   185    1
   190    88   186    1
   191    89    91    1
   192    89   187    1
   193    89   188    1
   194    90    91    1
   195    90   189    1
   196    90   190    1
   197    91   191    1
   198    91   192    1
   199    92   193    1
   200    92   194    1
   201    92   195    1
   202    93   196    1
   203    93   197    1
   204    93   198    1
   205    94   200    1
   206    94   201    1
   207    94   202    1
   208    95   203    1
   209    95   204    1
   210    95   205    1
