@<TRIPOS>MOLECULE
IMPHY013186
 110 109 0 0 0
SMALL
GASTEIGER

@<TRIPOS>ATOM
      1 O          16.7224   -1.0950    0.0000 O.3     1  UNL1       -0.3843
      2 O          17.5885    1.4050    0.0000 O.2     1  UNL1       -0.2947
      3 C          11.5263   -0.0950    0.0000 C.3     1  UNL1       -0.0531
      4 C          10.6603    0.4050    0.0000 C.3     1  UNL1       -0.0531
      5 C          12.3923    0.4050    0.0000 C.3     1  UNL1       -0.0531
      6 C           9.7942   -0.0950    0.0000 C.3     1  UNL1       -0.0531
      7 C          13.2583   -0.0950    0.0000 C.3     1  UNL1       -0.0531
      8 C           8.9282    0.4050    0.0000 C.3     1  UNL1       -0.0531
      9 C          23.6506   -0.0950    0.0000 C.3     1  UNL1       -0.0531
     10 C          24.5167    0.4050    0.0000 C.3     1  UNL1       -0.0531
     11 C          22.7846    0.4050    0.0000 C.3     1  UNL1       -0.0531
     12 C          25.3827   -0.0950    0.0000 C.3     1  UNL1       -0.0531
     13 C          14.1244    0.4050    0.0000 C.3     1  UNL1       -0.0530
     14 C          21.9186   -0.0950    0.0000 C.3     1  UNL1       -0.0531
     15 C           8.0622   -0.0950    0.0000 C.3     1  UNL1       -0.0531
     16 C          26.2487    0.4050    0.0000 C.3     1  UNL1       -0.0531
     17 C          21.0526    0.4050    0.0000 C.3     1  UNL1       -0.0530
     18 C          14.9904   -0.0950    0.0000 C.3     1  UNL1       -0.0503
     19 C           7.1962    0.4050    0.0000 C.3     1  UNL1       -0.0531
     20 C          27.1147   -0.0950    0.0000 C.3     1  UNL1       -0.0531
     21 C          20.1865   -0.0950    0.0000 C.3     1  UNL1       -0.0527
     22 C          15.8564    0.4050    0.0000 C.3     1  UNL1       -0.0199
     23 C           6.3301   -0.0950    0.0000 C.3     1  UNL1       -0.0531
     24 C          27.9808    0.4050    0.0000 C.3     1  UNL1       -0.0531
     25 C          19.3205    0.4050    0.0000 C.3     1  UNL1       -0.0463
     26 C          16.7224   -0.0950    0.0000 C.3     1  UNL1        0.1130
     27 C           5.4641    0.4050    0.0000 C.3     1  UNL1       -0.0531
     28 C          18.4545   -0.0950    0.0000 C.3     1  UNL1        0.0084
     29 C          28.8468   -0.0950    0.0000 C.3     1  UNL1       -0.0531
     30 C          17.5885    0.4050    0.0000 C.2     1  UNL1        0.1615
     31 C           4.5981   -0.0950    0.0000 C.3     1  UNL1       -0.0531
     32 C          29.7128    0.4050    0.0000 C.3     1  UNL1       -0.0531
     33 C           3.7320    0.4050    0.0000 C.3     1  UNL1       -0.0533
     34 C          30.5788   -0.0950    0.0000 C.3     1  UNL1       -0.0533
     35 C           2.8660   -0.0950    0.0000 C.3     1  UNL1       -0.0559
     36 C          31.4449    0.4050    0.0000 C.3     1  UNL1       -0.0559
     37 C           2.0000    0.4050    0.0000 C.3     1  UNL1       -0.0653
     38 C          32.3109   -0.0950    0.0000 C.3     1  UNL1       -0.0653
     39 H          11.0588    0.8799    0.0000 H       1  UNL1        0.0265
     40 H          10.2617    0.8799    0.0000 H       1  UNL1        0.0265
     41 H          11.1278   -0.5699    0.0000 H       1  UNL1        0.0265
     42 H          11.9248   -0.5699    0.0000 H       1  UNL1        0.0265
     43 H          12.7908    0.8799    0.0000 H       1  UNL1        0.0265
     44 H          11.9938    0.8799    0.0000 H       1  UNL1        0.0265
     45 H           9.3957   -0.5699    0.0000 H       1  UNL1        0.0265
     46 H          10.1928   -0.5699    0.0000 H       1  UNL1        0.0265
     47 H          12.8598   -0.5699    0.0000 H       1  UNL1        0.0265
     48 H          13.6569   -0.5699    0.0000 H       1  UNL1        0.0265
     49 H           9.3267    0.8799    0.0000 H       1  UNL1        0.0265
     50 H           8.5297    0.8799    0.0000 H       1  UNL1        0.0265
     51 H          23.2521   -0.5699    0.0000 H       1  UNL1        0.0265
     52 H          24.0492   -0.5699    0.0000 H       1  UNL1        0.0265
     53 H          24.9152    0.8799    0.0000 H       1  UNL1        0.0265
     54 H          24.1181    0.8799    0.0000 H       1  UNL1        0.0265
     55 H          23.1831    0.8799    0.0000 H       1  UNL1        0.0265
     56 H          22.3861    0.8799    0.0000 H       1  UNL1        0.0265
     57 H          24.9842   -0.5699    0.0000 H       1  UNL1        0.0265
     58 H          25.7812   -0.5699    0.0000 H       1  UNL1        0.0265
     59 H          14.5229    0.8799    0.0000 H       1  UNL1        0.0265
     60 H          13.7258    0.8799    0.0000 H       1  UNL1        0.0265
     61 H          21.5201   -0.5699    0.0000 H       1  UNL1        0.0265
     62 H          22.3171   -0.5699    0.0000 H       1  UNL1        0.0265
     63 H           7.6636   -0.5699    0.0000 H       1  UNL1        0.0265
     64 H           8.4607   -0.5699    0.0000 H       1  UNL1        0.0265
     65 H          26.6472    0.8799    0.0000 H       1  UNL1        0.0265
     66 H          25.8502    0.8799    0.0000 H       1  UNL1        0.0265
     67 H          21.4511    0.8799    0.0000 H       1  UNL1        0.0265
     68 H          20.6540    0.8799    0.0000 H       1  UNL1        0.0265
     69 H          14.5919   -0.5699    0.0000 H       1  UNL1        0.0266
     70 H          15.3889   -0.5699    0.0000 H       1  UNL1        0.0266
     71 H           7.5947    0.8799    0.0000 H       1  UNL1        0.0265
     72 H           6.7976    0.8799    0.0000 H       1  UNL1        0.0265
     73 H          26.7162   -0.5699    0.0000 H       1  UNL1        0.0265
     74 H          27.5133   -0.5699    0.0000 H       1  UNL1        0.0265
     75 H          19.7880   -0.5699    0.0000 H       1  UNL1        0.0265
     76 H          20.5851   -0.5699    0.0000 H       1  UNL1        0.0265
     77 H          16.2549    0.8799    0.0000 H       1  UNL1        0.0294
     78 H          15.4579    0.8799    0.0000 H       1  UNL1        0.0294
     79 H           5.9316   -0.5699    0.0000 H       1  UNL1        0.0265
     80 H           6.7287   -0.5699    0.0000 H       1  UNL1        0.0265
     81 H          28.3793    0.8799    0.0000 H       1  UNL1        0.0265
     82 H          27.5822    0.8799    0.0000 H       1  UNL1        0.0265
     83 H          19.7190    0.8799    0.0000 H       1  UNL1        0.0269
     84 H          18.9220    0.8799    0.0000 H       1  UNL1        0.0269
     85 H          16.1855   -0.4050    0.0000 H       1  UNL1        0.0673
     86 H           5.8626    0.8799    0.0000 H       1  UNL1        0.0265
     87 H           5.0656    0.8799    0.0000 H       1  UNL1        0.0265
     88 H          18.0560   -0.5699    0.0000 H       1  UNL1        0.0342
     89 H          18.8530   -0.5699    0.0000 H       1  UNL1        0.0342
     90 H          28.4483   -0.5699    0.0000 H       1  UNL1        0.0265
     91 H          29.2453   -0.5699    0.0000 H       1  UNL1        0.0265
     92 H           4.1996   -0.5699    0.0000 H       1  UNL1        0.0265
     93 H           4.9966   -0.5699    0.0000 H       1  UNL1        0.0265
     94 H          30.1113    0.8799    0.0000 H       1  UNL1        0.0265
     95 H          29.3143    0.8799    0.0000 H       1  UNL1        0.0265
     96 H           4.1306    0.8799    0.0000 H       1  UNL1        0.0265
     97 H           3.3335    0.8799    0.0000 H       1  UNL1        0.0265
     98 H          30.1803   -0.5699    0.0000 H       1  UNL1        0.0265
     99 H          30.9774   -0.5699    0.0000 H       1  UNL1        0.0265
    100 H           2.4675   -0.5699    0.0000 H       1  UNL1        0.0263
    101 H           3.2646   -0.5699    0.0000 H       1  UNL1        0.0263
    102 H          31.8434    0.8799    0.0000 H       1  UNL1        0.0263
    103 H          31.0463    0.8799    0.0000 H       1  UNL1        0.0263
    104 H          16.1855   -1.4050    0.0000 H       1  UNL1        0.2104
    105 H           2.3100    0.9419    0.0000 H       1  UNL1        0.0230
    106 H           1.4631    0.7150    0.0000 H       1  UNL1        0.0230
    107 H           1.6900   -0.1319    0.0000 H       1  UNL1        0.0230
    108 H          32.0009   -0.6319    0.0000 H       1  UNL1        0.0230
    109 H          32.8478   -0.4050    0.0000 H       1  UNL1        0.0230
    110 H          32.6209    0.4419    0.0000 H       1  UNL1        0.0230
@<TRIPOS>BOND
     1     1    26    1
     2     1   104    1
     3     2    30    2
     4     3     4    1
     5     3     5    1
     6     3    41    1
     7     3    42    1
     8     4     6    1
     9     4    39    1
    10     4    40    1
    11     5     7    1
    12     5    43    1
    13     5    44    1
    14     6     8    1
    15     6    45    1
    16     6    46    1
    17     7    13    1
    18     7    47    1
    19     7    48    1
    20     8    15    1
    21     8    49    1
    22     8    50    1
    23     9    10    1
    24     9    11    1
    25     9    51    1
    26     9    52    1
    27    10    12    1
    28    10    53    1
    29    10    54    1
    30    11    14    1
    31    11    55    1
    32    11    56    1
    33    12    16    1
    34    12    57    1
    35    12    58    1
    36    13    18    1
    37    13    59    1
    38    13    60    1
    39    14    17    1
    40    14    61    1
    41    14    62    1
    42    15    19    1
    43    15    63    1
    44    15    64    1
    45    16    20    1
    46    16    65    1
    47    16    66    1
    48    17    21    1
    49    17    67    1
    50    17    68    1
    51    18    22    1
    52    18    69    1
    53    18    70    1
    54    19    23    1
    55    19    71    1
    56    19    72    1
    57    20    24    1
    58    20    73    1
    59    20    74    1
    60    21    25    1
    61    21    75    1
    62    21    76    1
    63    22    26    1
    64    22    77    1
    65    22    78    1
    66    23    27    1
    67    23    79    1
    68    23    80    1
    69    24    29    1
    70    24    81    1
    71    24    82    1
    72    25    28    1
    73    25    83    1
    74    25    84    1
    75    26    30    1
    76    26    85    1
    77    27    31    1
    78    27    86    1
    79    27    87    1
    80    28    30    1
    81    28    88    1
    82    28    89    1
    83    29    32    1
    84    29    90    1
    85    29    91    1
    86    31    33    1
    87    31    92    1
    88    31    93    1
    89    32    34    1
    90    32    94    1
    91    32    95    1
    92    33    35    1
    93    33    96    1
    94    33    97    1
    95    34    36    1
    96    34    98    1
    97    34    99    1
    98    35    37    1
    99    35   100    1
   100    35   101    1
   101    36    38    1
   102    36   102    1
   103    36   103    1
   104    37   105    1
   105    37   106    1
   106    37   107    1
   107    38   108    1
   108    38   109    1
   109    38   110    1
