@<TRIPOS>MOLECULE
IMPHY016857
 77 80 0 0 0
SMALL
GASTEIGER

@<TRIPOS>ATOM
      1 C           6.5251   -0.6074    0.0000 C.3     1  UNL1       -0.0259
      2 C           6.5251   -1.6074    0.0000 C.3     1  UNL1       -0.0320
      3 C           5.6591   -2.1074    0.0000 C.3     1  UNL1       -0.0306
      4 C           7.4714   -0.3027    0.0000 C.3     1  UNL1       -0.0328
      5 C           4.7931   -1.6074    0.0000 C.3     1  UNL1       -0.0282
      6 C           5.6591   -0.1074    0.0000 C.3     1  UNL1       -0.0468
      7 C           7.4714   -1.9122    0.0000 C.3     1  UNL1       -0.0492
      8 C           4.7931   -0.6074    0.0000 C.3     1  UNL1       -0.0486
      9 C           8.0550   -1.1074    0.0000 C.3     1  UNL1       -0.0492
     10 C           3.8831   -2.1143    0.0000 C.3     1  UNL1       -0.0040
     11 C           7.7820    0.6478    0.0000 C.3     1  UNL1       -0.0405
     12 C           5.6752   -3.1489    0.0000 C.3     1  UNL1       -0.0308
     13 C           6.5251    0.3926    0.0000 C.3     1  UNL1       -0.0590
     14 C           3.8751   -3.1559    0.0000 C.2     1  UNL1       -0.0454
     15 C           2.9562   -1.5502    0.0000 C.3     1  UNL1       -0.0399
     16 C           4.7771   -3.6767    0.0000 C.2     1  UNL1       -0.0800
     17 C           3.8908   -1.1143    0.0000 C.3     1  UNL1       -0.0553
     18 C           8.7605    0.8540    0.0000 C.3     1  UNL1       -0.0499
     19 C           7.1142    1.3921    0.0000 C.3     1  UNL1       -0.0621
     20 C           2.0084   -2.0781    0.0000 C.3     1  UNL1       -0.0337
     21 C           2.9396   -3.7056    0.0000 C.2     1  UNL1       -0.0623
     22 C           9.0712    1.8046    0.0000 C.3     1  UNL1       -0.0497
     23 C           2.0000   -3.1631    0.0000 C.2     1  UNL1       -0.0837
     24 C          10.0497    2.0108    0.0000 C.3     1  UNL1       -0.0389
     25 C          10.3604    2.9613    0.0000 C.3     1  UNL1       -0.0439
     26 C          10.7175    1.2665    0.0000 C.3     1  UNL1       -0.0528
     27 C          11.3389    3.1675    0.0000 C.3     1  UNL1       -0.0624
     28 C           9.6925    3.7056    0.0000 C.3     1  UNL1       -0.0624
     29 C          11.6960    1.4727    0.0000 C.3     1  UNL1       -0.0650
     30 H           6.5908   -2.2240    0.0000 H       1  UNL1        0.0309
     31 H           6.1984   -2.4133    0.0000 H       1  UNL1        0.0309
     32 H           8.0838   -0.2065    0.0000 H       1  UNL1        0.0309
     33 H           5.3300   -1.2974    0.0000 H       1  UNL1        0.0312
     34 H           6.0576    0.3675    0.0000 H       1  UNL1        0.0271
     35 H           5.2606    0.3675    0.0000 H       1  UNL1        0.0271
     36 H           7.2203   -2.4791    0.0000 H       1  UNL1        0.0268
     37 H           8.0087   -2.2214    0.0000 H       1  UNL1        0.0268
     38 H           4.5810   -0.0248    0.0000 H       1  UNL1        0.0268
     39 H           4.1825   -0.7151    0.0000 H       1  UNL1        0.0268
     40 H           8.5158   -1.5222    0.0000 H       1  UNL1        0.0268
     41 H           8.5158   -0.6927    0.0000 H       1  UNL1        0.0268
     42 H           7.9746    1.2371    0.0000 H       1  UNL1        0.0301
     43 H           5.8932   -3.7293    0.0000 H       1  UNL1        0.0310
     44 H           6.2843   -3.0334    0.0000 H       1  UNL1        0.0310
     45 H           7.1451    0.3926    0.0000 H       1  UNL1        0.0235
     46 H           6.5251    1.0126    0.0000 H       1  UNL1        0.0235
     47 H           5.9051    0.3926    0.0000 H       1  UNL1        0.0235
     48 H           3.3645   -1.0835    0.0000 H       1  UNL1        0.0277
     49 H           2.5663   -1.0682    0.0000 H       1  UNL1        0.0277
     50 H           4.7795   -4.2967    0.0000 H       1  UNL1        0.0575
     51 H           4.5108   -1.1191    0.0000 H       1  UNL1        0.0238
     52 H           3.8956   -0.4943    0.0000 H       1  UNL1        0.0238
     53 H           3.2708   -1.1095    0.0000 H       1  UNL1        0.0238
     54 H           8.7811    0.2344    0.0000 H       1  UNL1        0.0268
     55 H           9.3743    0.7667    0.0000 H       1  UNL1        0.0268
     56 H           7.5756    1.8062    0.0000 H       1  UNL1        0.0233
     57 H           6.7001    1.8536    0.0000 H       1  UNL1        0.0233
     58 H           6.6527    0.9781    0.0000 H       1  UNL1        0.0233
     59 H           1.8038   -1.4929    0.0000 H       1  UNL1        0.0308
     60 H           1.3967   -2.1795    0.0000 H       1  UNL1        0.0308
     61 H           2.9420   -4.3256    0.0000 H       1  UNL1        0.0617
     62 H           9.0506    2.4242    0.0000 H       1  UNL1        0.0268
     63 H           8.4574    1.8919    0.0000 H       1  UNL1        0.0268
     64 H           1.4619   -3.4710    0.0000 H       1  UNL1        0.0572
     65 H           9.8571    1.4215    0.0000 H       1  UNL1        0.0303
     66 H          10.5530    3.5506    0.0000 H       1  UNL1        0.0298
     67 H          10.1912    0.9388    0.0000 H       1  UNL1        0.0265
     68 H          10.9488    0.6912    0.0000 H       1  UNL1        0.0265
     69 H          11.4667    2.5608    0.0000 H       1  UNL1        0.0232
     70 H          11.9455    3.2954    0.0000 H       1  UNL1        0.0232
     71 H          11.2110    3.7742    0.0000 H       1  UNL1        0.0232
     72 H          10.1540    4.1197    0.0000 H       1  UNL1        0.0232
     73 H           9.2784    4.1671    0.0000 H       1  UNL1        0.0232
     74 H           9.2310    3.2915    0.0000 H       1  UNL1        0.0232
     75 H          11.8239    0.8660    0.0000 H       1  UNL1        0.0230
     76 H          12.3027    1.6006    0.0000 H       1  UNL1        0.0230
     77 H          11.5682    2.0794    0.0000 H       1  UNL1        0.0230
@<TRIPOS>BOND
     1     1     2    1
     2     1     4    1
     3     1     6    1
     4     1    13    1
     5     2     3    1
     6     2     7    1
     7     2    30    1
     8     3     5    1
     9     3    12    1
    10     3    31    1
    11     4     9    1
    12     4    11    1
    13     4    32    1
    14     5     8    1
    15     5    10    1
    16     5    33    1
    17     6     8    1
    18     6    34    1
    19     6    35    1
    20     7     9    1
    21     7    36    1
    22     7    37    1
    23     8    38    1
    24     8    39    1
    25     9    40    1
    26     9    41    1
    27    10    14    1
    28    10    15    1
    29    10    17    1
    30    11    18    1
    31    11    19    1
    32    11    42    1
    33    12    16    1
    34    12    43    1
    35    12    44    1
    36    13    45    1
    37    13    46    1
    38    13    47    1
    39    14    16    2
    40    14    21    1
    41    15    20    1
    42    15    48    1
    43    15    49    1
    44    16    50    1
    45    17    51    1
    46    17    52    1
    47    17    53    1
    48    18    22    1
    49    18    54    1
    50    18    55    1
    51    19    56    1
    52    19    57    1
    53    19    58    1
    54    20    23    1
    55    20    59    1
    56    20    60    1
    57    21    23    2
    58    21    61    1
    59    22    24    1
    60    22    62    1
    61    22    63    1
    62    23    64    1
    63    24    25    1
    64    24    26    1
    65    24    65    1
    66    25    27    1
    67    25    28    1
    68    25    66    1
    69    26    29    1
    70    26    67    1
    71    26    68    1
    72    27    69    1
    73    27    70    1
    74    27    71    1
    75    28    72    1
    76    28    73    1
    77    28    74    1
    78    29    75    1
    79    29    76    1
    80    29    77    1
