@<TRIPOS>MOLECULE
IMPHY010251
 36 37 0 0 0
SMALL
GASTEIGER

@<TRIPOS>ATOM
      1 O           5.1350    0.3856    0.0000 O.3     1  UNL1       -0.3405
      2 O           6.8671    0.3856    0.0000 O.3     1  UNL1       -0.3242
      3 O           5.1350   -2.6144    0.0000 O.3     1  UNL1       -0.3864
      4 O           6.8671   -1.6144    0.0000 O.3     1  UNL1       -0.3841
      5 O           3.4030   -1.6144    0.0000 O.3     1  UNL1       -0.3865
      6 O           2.5369   -0.1144    0.0000 O.3     1  UNL1       -0.3924
      7 N           8.7692    0.7675    0.0000 N.1     1  UNL1       -0.1932
      8 C           5.1350   -1.6144    0.0000 C.3     1  UNL1        0.1141
      9 C           6.0010   -1.1144    0.0000 C.3     1  UNL1        0.1342
     10 C           4.2690   -1.1144    0.0000 C.3     1  UNL1        0.1119
     11 C           6.0010   -0.1144    0.0000 C.3     1  UNL1        0.1901
     12 C           4.2690   -0.1144    0.0000 C.3     1  UNL1        0.1130
     13 C           6.8671    1.3856    0.0000 C.3     1  UNL1        0.1764
     14 C           7.1761    2.3366    0.0000 C.3     1  UNL1       -0.0031
     15 C           3.4030    0.3856    0.0000 C.3     1  UNL1        0.0730
     16 C           6.3671    2.9244    0.0000 C.3     1  UNL1       -0.0307
     17 C           5.8671    1.3856    0.0000 C.2     1  UNL1       -0.0424
     18 C           5.5580    2.3366    0.0000 C.2     1  UNL1       -0.0841
     19 C           7.8181    1.0766    0.0000 C.1     1  UNL1        0.1021
     20 H           5.6720   -1.9244    0.0000 H       1  UNL1        0.0648
     21 H           6.5380   -0.8044    0.0000 H       1  UNL1        0.0671
     22 H           4.2690   -1.7344    0.0000 H       1  UNL1        0.0647
     23 H           6.0010    0.5056    0.0000 H       1  UNL1        0.0938
     24 H           4.2690    0.5056    0.0000 H       1  UNL1        0.0647
     25 H           7.7425    2.0845    0.0000 H       1  UNL1        0.0310
     26 H           7.4861    2.8736    0.0000 H       1  UNL1        0.0310
     27 H           3.8015    0.8605    0.0000 H       1  UNL1        0.0584
     28 H           3.0044    0.8605    0.0000 H       1  UNL1        0.0584
     29 H           6.7819    3.3852    0.0000 H       1  UNL1        0.0309
     30 H           5.9522    3.3852    0.0000 H       1  UNL1        0.0309
     31 H           5.5026    0.8840    0.0000 H       1  UNL1        0.0608
     32 H           4.9684    2.5282    0.0000 H       1  UNL1        0.0570
     33 H           4.5981   -2.9244    0.0000 H       1  UNL1        0.2100
     34 H           6.8671   -2.2344    0.0000 H       1  UNL1        0.2101
     35 H           3.4030   -2.2344    0.0000 H       1  UNL1        0.2100
     36 H           2.0000    0.1956    0.0000 H       1  UNL1        0.2095
@<TRIPOS>BOND
     1     1    11    1
     2     1    12    1
     3    11     2    1
     4    13     2    1
     5     8     3    1
     6     3    33    1
     7     9     4    1
     8     4    34    1
     9    10     5    1
    10     5    35    1
    11     6    15    1
    12     6    36    1
    13     7    19    3
    14     8     9    1
    15     8    10    1
    16     8    20    1
    17     9    11    1
    18     9    21    1
    19    10    12    1
    20    10    22    1
    21    11    23    1
    22    12    15    1
    23    12    24    1
    24    13    14    1
    25    13    17    1
    26    13    19    1
    27    14    16    1
    28    14    25    1
    29    14    26    1
    30    15    27    1
    31    15    28    1
    32    16    18    1
    33    16    29    1
    34    16    30    1
    35    17    18    2
    36    17    31    1
    37    18    32    1
