@<TRIPOS>MOLECULE
IMPHY010564
 84 88 0 0 0
SMALL
GASTEIGER

@<TRIPOS>ATOM
      1 O           2.5357   -2.5933    0.0000 O.3     1  UNL1       -0.3912
      2 O          11.5367    0.5118    0.0000 O.3     1  UNL1       -0.3886
      3 O          11.5367    2.6034    0.0000 O.3     1  UNL1       -0.3887
      4 O          10.6064   -1.0134    0.0000 O.3     1  UNL1       -0.3944
      5 C           7.0628   -1.0410    0.0000 C.3     1  UNL1       -0.0194
      6 C           6.1968   -0.5410    0.0000 C.3     1  UNL1       -0.0257
      7 C           5.2868   -1.0478    0.0000 C.3     1  UNL1       -0.0250
      8 C           7.9288   -0.5410    0.0000 C.3     1  UNL1       -0.0051
      9 C           5.2787   -2.0894    0.0000 C.3     1  UNL1       -0.0278
     10 C           7.0789   -2.0825    0.0000 C.3     1  UNL1       -0.0463
     11 C           7.9288    0.4590    0.0000 C.2     1  UNL1       -0.0632
     12 C           8.8228    0.9937    0.0000 C.3     1  UNL1       -0.0086
     13 C           9.7288    0.4799    0.0000 C.3     1  UNL1        0.0287
     14 C           6.1808   -2.6102    0.0000 C.3     1  UNL1       -0.0486
     15 C           4.3433   -2.6391    0.0000 C.3     1  UNL1       -0.0056
     16 C           8.8228   -1.0756    0.0000 C.3     1  UNL1       -0.0427
     17 C           6.1968    0.4590    0.0000 C.3     1  UNL1       -0.0306
     18 C           4.3599   -0.4837    0.0000 C.3     1  UNL1       -0.0447
     19 C           9.7288   -0.5618    0.0000 C.3     1  UNL1       -0.0415
     20 C           7.7056   -1.8070    0.0000 C.3     1  UNL1       -0.0585
     21 C           7.0628    0.9590    0.0000 C.2     1  UNL1       -0.0836
     22 C           3.4037   -2.0966    0.0000 C.3     1  UNL1        0.0606
     23 C           8.7977    2.0784    0.0000 C.3     1  UNL1       -0.0382
     24 C           5.2945   -0.0478    0.0000 C.3     1  UNL1       -0.0590
     25 C           8.2709   -1.4806    0.0000 C.3     1  UNL1       -0.0553
     26 C          10.6726    1.0151    0.0000 C.3     1  UNL1        0.0898
     27 C           3.4120   -1.0117    0.0000 C.3     1  UNL1       -0.0258
     28 C           9.7288    2.6353    0.0000 C.3     1  UNL1       -0.0059
     29 C          10.6726    2.1001    0.0000 C.3     1  UNL1        0.0868
     30 C          10.5987   -0.0135    0.0000 C.3     1  UNL1        0.0528
     31 C           3.8467   -3.5071    0.0000 C.3     1  UNL1       -0.0572
     32 C           4.8466   -3.5032    0.0000 C.3     1  UNL1       -0.0572
     33 C          10.2188    3.5071    0.0000 C.3     1  UNL1       -0.0574
     34 C           9.2188    3.4955    0.0000 C.3     1  UNL1       -0.0574
     35 H           6.9329   -0.1160    0.0000 H       1  UNL1        0.0315
     36 H           5.2820   -2.9394    0.0000 H       1  UNL1        0.0312
     37 H           7.2969   -2.6629    0.0000 H       1  UNL1        0.0271
     38 H           7.6880   -1.9670    0.0000 H       1  UNL1        0.0271
     39 H           9.5522    1.4300    0.0000 H       1  UNL1        0.0353
     40 H           5.7835   -3.0862    0.0000 H       1  UNL1        0.0268
     41 H           6.5818   -3.0831    0.0000 H       1  UNL1        0.0268
     42 H           8.4182   -1.5454    0.0000 H       1  UNL1        0.0274
     43 H           9.2164   -1.5546    0.0000 H       1  UNL1        0.0274
     44 H           5.9847    1.0416    0.0000 H       1  UNL1        0.0310
     45 H           5.5862    0.3514    0.0000 H       1  UNL1        0.0310
     46 H           4.7681   -0.0171    0.0000 H       1  UNL1        0.0271
     47 H           3.9700   -0.0017    0.0000 H       1  UNL1        0.0271
     48 H           9.9379   -1.1455    0.0000 H       1  UNL1        0.0273
     49 H          10.3397   -0.4557    0.0000 H       1  UNL1        0.0273
     50 H           7.2306   -2.2055    0.0000 H       1  UNL1        0.0235
     51 H           8.1041   -2.2820    0.0000 H       1  UNL1        0.0235
     52 H           8.1805   -1.4085    0.0000 H       1  UNL1        0.0235
     53 H           7.0628    1.5790    0.0000 H       1  UNL1        0.0572
     54 H           3.4025   -2.7166    0.0000 H       1  UNL1        0.0599
     55 H           8.5752    2.6571    0.0000 H       1  UNL1        0.0277
     56 H           8.1894    1.9582    0.0000 H       1  UNL1        0.0277
     57 H           5.9145   -0.0526    0.0000 H       1  UNL1        0.0235
     58 H           5.2993    0.5721    0.0000 H       1  UNL1        0.0235
     59 H           4.6745   -0.0431    0.0000 H       1  UNL1        0.0235
     60 H           7.6884   -1.6927    0.0000 H       1  UNL1        0.0238
     61 H           8.4830   -2.0632    0.0000 H       1  UNL1        0.0238
     62 H           8.8535   -1.2685    0.0000 H       1  UNL1        0.0238
     63 H          11.2101    1.3241    0.0000 H       1  UNL1        0.0626
     64 H           3.2075   -0.4264    0.0000 H       1  UNL1        0.0290
     65 H           2.8004   -1.1131    0.0000 H       1  UNL1        0.0290
     66 H          11.2101    1.7911    0.0000 H       1  UNL1        0.0624
     67 H          11.2101   -0.1164    0.0000 H       1  UNL1        0.0564
     68 H          10.8062    0.5708    0.0000 H       1  UNL1        0.0564
     69 H           3.3085   -3.1992    0.0000 H       1  UNL1        0.0236
     70 H           3.5387   -4.0452    0.0000 H       1  UNL1        0.0236
     71 H           4.3848   -3.8150    0.0000 H       1  UNL1        0.0236
     72 H           4.3109   -3.8153    0.0000 H       1  UNL1        0.0236
     73 H           5.1587   -4.0390    0.0000 H       1  UNL1        0.0236
     74 H           5.3824   -3.1912    0.0000 H       1  UNL1        0.0236
     75 H          10.7593    3.2033    0.0000 H       1  UNL1        0.0236
     76 H           9.7522    3.8117    0.0000 H       1  UNL1        0.0236
     77 H           8.9027    4.0288    0.0000 H       1  UNL1        0.0236
     78 H           8.6855    3.1793    0.0000 H       1  UNL1        0.0236
     79 H          10.5226    4.0476    0.0000 H       1  UNL1        0.0236
     80 H           9.6783    3.8108    0.0000 H       1  UNL1        0.0236
     81 H           2.0000   -2.2812    0.0000 H       1  UNL1        0.2098
     82 H          12.0748    0.8197    0.0000 H       1  UNL1        0.2099
     83 H          11.5343    3.2234    0.0000 H       1  UNL1        0.2099
     84 H          11.1457   -1.3193    0.0000 H       1  UNL1        0.2094
@<TRIPOS>BOND
     1    22     1    1
     2     1    81    1
     3    26     2    1
     4     2    82    1
     5    29     3    1
     6     3    83    1
     7     4    30    1
     8     4    84    1
     9     5     6    1
    10     5     8    1
    11     5    10    1
    12     5    20    1
    13     6     7    1
    14     6    17    1
    15     6    35    1
    16     7     9    1
    17     7    18    1
    18     7    24    1
    19     8    11    1
    20     8    16    1
    21     8    25    1
    22     9    14    1
    23     9    15    1
    24     9    36    1
    25    10    14    1
    26    10    37    1
    27    10    38    1
    28    11    12    1
    29    11    21    2
    30    12    13    1
    31    12    23    1
    32    12    39    1
    33    13    19    1
    34    13    26    1
    35    13    30    1
    36    14    40    1
    37    14    41    1
    38    15    22    1
    39    15    31    1
    40    15    32    1
    41    16    19    1
    42    16    42    1
    43    16    43    1
    44    17    21    1
    45    17    44    1
    46    17    45    1
    47    18    27    1
    48    18    46    1
    49    18    47    1
    50    19    48    1
    51    19    49    1
    52    20    50    1
    53    20    51    1
    54    20    52    1
    55    21    53    1
    56    22    27    1
    57    22    54    1
    58    23    28    1
    59    23    55    1
    60    23    56    1
    61    24    57    1
    62    24    58    1
    63    24    59    1
    64    25    60    1
    65    25    61    1
    66    25    62    1
    67    26    29    1
    68    26    63    1
    69    27    64    1
    70    27    65    1
    71    28    29    1
    72    28    33    1
    73    28    34    1
    74    29    66    1
    75    30    67    1
    76    30    68    1
    77    31    69    1
    78    31    70    1
    79    31    71    1
    80    32    72    1
    81    32    73    1
    82    32    74    1
    83    33    75    1
    84    33    79    1
    85    33    80    1
    86    34    76    1
    87    34    77    1
    88    34    78    1
