@<TRIPOS>MOLECULE
IMPHY000171
 28 29 0 0 0
SMALL
GASTEIGER

@<TRIPOS>ATOM
      1 O           2.3420   -0.9128    0.0000 O.3     1  UNL1       -0.2229
      2 O           2.0000    0.0269    0.0000 O.3     1  UNL1       -0.2234
      3 C           3.7147   -0.3208    0.0000 C.3     1  UNL1        0.1250
      4 C           5.1137   -0.8296    0.0000 C.3     1  UNL1       -0.0138
      5 C           3.9735    0.6452    0.0000 C.3     1  UNL1        0.1200
      6 C           5.3725    0.1363    0.0000 C.3     1  UNL1       -0.0143
      7 C           3.4559   -1.2867    0.0000 C.3     1  UNL1       -0.0109
      8 C           2.7369    1.4938    0.0000 C.2     1  UNL1       -0.0505
      9 C           3.6030    1.9938    0.0000 C.2     1  UNL1       -0.0510
     10 C           4.2324    1.6111    0.0000 C.3     1  UNL1       -0.0291
     11 C           4.1630   -1.9938    0.0000 C.3     1  UNL1       -0.0596
     12 C           2.4900   -1.5455    0.0000 C.3     1  UNL1       -0.0596
     13 H           4.9187   -1.4181    0.0000 H       1  UNL1        0.0298
     14 H           5.7076   -1.0074    0.0000 H       1  UNL1        0.0298
     15 H           5.9664   -0.0414    0.0000 H       1  UNL1        0.0298
     16 H           5.5674    0.7249    0.0000 H       1  UNL1        0.0298
     17 H           4.0548   -1.1262    0.0000 H       1  UNL1        0.0327
     18 H           2.1405    1.6630    0.0000 H       1  UNL1        0.0599
     19 H           3.8384    2.5674    0.0000 H       1  UNL1        0.0599
     20 H           4.8312    1.4506    0.0000 H       1  UNL1        0.0261
     21 H           4.3928    2.2100    0.0000 H       1  UNL1        0.0261
     22 H           3.6335    1.7716    0.0000 H       1  UNL1        0.0261
     23 H           3.7246   -2.4322    0.0000 H       1  UNL1        0.0233
     24 H           4.6014   -2.4322    0.0000 H       1  UNL1        0.0233
     25 H           4.6014   -1.5554    0.0000 H       1  UNL1        0.0233
     26 H           2.3295   -0.9466    0.0000 H       1  UNL1        0.0233
     27 H           1.8911   -1.7060    0.0000 H       1  UNL1        0.0233
     28 H           2.6505   -2.1444    0.0000 H       1  UNL1        0.0233
@<TRIPOS>BOND
     1     1     2    1
     2     1     3    1
     3     2     5    1
     4     3     4    1
     5     3     7    1
     6     3     8    1
     7     4     6    1
     8     4    13    1
     9     4    14    1
    10     5     6    1
    11     5     9    1
    12     5    10    1
    13     6    15    1
    14     6    16    1
    15     7    11    1
    16     7    12    1
    17     7    17    1
    18     8     9    2
    19     8    18    1
    20     9    19    1
    21    10    20    1
    22    10    21    1
    23    10    22    1
    24    11    23    1
    25    11    24    1
    26    11    25    1
    27    12    26    1
    28    12    27    1
    29    12    28    1
