@<TRIPOS>MOLECULE
IMPHY010902
 99 106 0 0 0
SMALL
GASTEIGER

@<TRIPOS>ATOM
      1 O           3.0849    0.9683    0.0000 O.3     1  UNL1       -0.3815
      2 O           2.6437    1.8064    0.0000 O.3     1  UNL1       -0.3851
      3 O           4.1612    0.6375    0.0000 O.3     1  UNL1       -0.3765
      4 O           5.9839    4.3994    0.0000 O.3     1  UNL1       -0.3791
      5 O           2.2670    3.9735    0.0000 O.3     1  UNL1       -0.3790
      6 O           1.8662    4.8573    0.0000 O.3     1  UNL1       -0.3793
      7 O           6.8499    0.1642    0.0000 O.3     1  UNL1       -0.4605
      8 O           5.9839   -1.3358    0.0000 O.2     1  UNL1       -0.2449
      9 O           8.9325   -4.1394    0.0000 O.2     1  UNL1       -0.2745
     10 O           5.6246   -2.9354    0.0000 O.2     1  UNL1       -0.2748
     11 N           7.1792    2.5703    0.0000 N.3     1  UNL1       -0.2955
     12 N           7.3739   -3.2755    0.0000 N.am    1  UNL1       -0.2094
     13 C           5.2325    2.9656    0.0000 C.3     1  UNL1        0.0245
     14 C           5.2325    2.0980    0.0000 C.3     1  UNL1        0.0078
     15 C           6.2345    2.8595    0.0000 C.3     1  UNL1        0.0529
     16 C           4.5542    3.5065    0.0000 C.3     1  UNL1       -0.0228
     17 C           3.7084    1.7501    0.0000 C.3     1  UNL1        0.1371
     18 C           3.7084    3.3134    0.0000 C.3     1  UNL1        0.0209
     19 C           3.3320    2.5318    0.0000 C.3     1  UNL1        0.1063
     20 C           4.5542    1.5571    0.0000 C.3     1  UNL1        0.0953
     21 C           5.9839    1.6642    0.0000 C.3     1  UNL1        0.0236
     22 C           5.9839    3.3994    0.0000 C.3     1  UNL1        0.0661
     23 C           4.6320    4.3706    0.0000 C.3     1  UNL1       -0.0416
     24 C           3.8342    4.7116    0.0000 C.3     1  UNL1        0.0123
     25 C           3.2634    4.0582    0.0000 C.3     1  UNL1        0.0693
     26 C           2.6871    2.8017    0.0000 C.3     1  UNL1        0.0059
     27 C           7.1792    1.8184    0.0000 C.3     1  UNL1        0.0084
     28 C           6.7352    2.0980    0.0000 C.3     1  UNL1       -0.0404
     29 C           2.6871    4.2862    0.0000 C.3     1  UNL1        0.0662
     30 C           6.7352    2.9656    0.0000 C.3     1  UNL1       -0.0254
     31 C           5.9839    0.6642    0.0000 C.3     1  UNL1        0.0999
     32 C           7.9832    3.1650    0.0000 C.3     1  UNL1       -0.0035
     33 C           4.7610   -0.1626    0.0000 C.3     1  UNL1        0.0369
     34 C           8.9002    2.7661    0.0000 C.3     1  UNL1       -0.0523
     35 C           6.8499    4.8994    0.0000 C.3     1  UNL1        0.0368
     36 C           1.8422    3.0683    0.0000 C.3     1  UNL1        0.0368
     37 C           1.9504    5.8538    0.0000 C.3     1  UNL1        0.0368
     38 C           6.8499   -0.8358    0.0000 C.2     1  UNL1        0.3410
     39 C           7.7159   -1.3358    0.0000 C.ar    1  UNL1        0.0807
     40 C           7.7159   -2.3358    0.0000 C.ar    1  UNL1        0.0578
     41 C           8.5820   -0.8358    0.0000 C.ar    1  UNL1       -0.0459
     42 C           8.5820   -2.8358    0.0000 C.ar    1  UNL1       -0.0390
     43 C           9.4480   -1.3358    0.0000 C.ar    1  UNL1       -0.0609
     44 C           9.4480   -2.3358    0.0000 C.ar    1  UNL1       -0.0599
     45 C           7.9331   -4.1045    0.0000 C.2     1  UNL1        0.2295
     46 C           6.4126   -3.5511    0.0000 C.2     1  UNL1        0.2269
     47 C           7.3174   -4.8925    0.0000 C.3     1  UNL1        0.0419
     48 C           6.3778   -4.5505    0.0000 C.3     1  UNL1        0.0357
     49 C           7.5931   -5.8538    0.0000 C.3     1  UNL1       -0.0536
     50 H           5.2961    1.2504    0.0000 H       1  UNL1        0.0340
     51 H           6.5465    3.6502    0.0000 H       1  UNL1        0.0499
     52 H           5.3358    3.8406    0.0000 H       1  UNL1        0.0312
     53 H           2.8593    3.2753    0.0000 H       1  UNL1        0.0358
     54 H           4.7546    0.9704    0.0000 H       1  UNL1        0.0629
     55 H           5.4470    3.7094    0.0000 H       1  UNL1        0.0602
     56 H           4.8148    4.9630    0.0000 H       1  UNL1        0.0272
     57 H           5.2403    4.2508    0.0000 H       1  UNL1        0.0272
     58 H           3.8550    5.5613    0.0000 H       1  UNL1        0.0351
     59 H           2.9833    4.6113    0.0000 H       1  UNL1        0.0603
     60 H           2.5252    2.2032    0.0000 H       1  UNL1        0.0319
     61 H           2.0725    2.8834    0.0000 H       1  UNL1        0.0319
     62 H           7.7986    1.8450    0.0000 H       1  UNL1        0.0433
     63 H           7.2322    1.2007    0.0000 H       1  UNL1        0.0433
     64 H           7.3458    2.2057    0.0000 H       1  UNL1        0.0273
     65 H           6.9473    1.5154    0.0000 H       1  UNL1        0.0273
     66 H           2.7652    4.9013    0.0000 H       1  UNL1        0.0600
     67 H           6.9473    3.5482    0.0000 H       1  UNL1        0.0290
     68 H           7.3458    2.8579    0.0000 H       1  UNL1        0.0290
     69 H           5.7718    0.0816    0.0000 H       1  UNL1        0.0704
     70 H           5.3733    0.7719    0.0000 H       1  UNL1        0.0704
     71 H           3.3114    0.3912    0.0000 H       1  UNL1        0.2105
     72 H           2.0408    1.9511    0.0000 H       1  UNL1        0.2103
     73 H           7.5335    3.5919    0.0000 H       1  UNL1        0.0424
     74 H           8.3255    3.6820    0.0000 H       1  UNL1        0.0424
     75 H           5.2571    0.2093    0.0000 H       1  UNL1        0.0524
     76 H           5.1329   -0.6587    0.0000 H       1  UNL1        0.0524
     77 H           4.2650   -0.5345    0.0000 H       1  UNL1        0.0524
     78 H           9.1475    3.3346    0.0000 H       1  UNL1        0.0242
     79 H           9.4687    2.5188    0.0000 H       1  UNL1        0.0242
     80 H           8.6528    2.1976    0.0000 H       1  UNL1        0.0242
     81 H           6.5399    5.4363    0.0000 H       1  UNL1        0.0524
     82 H           7.3868    5.2094    0.0000 H       1  UNL1        0.0524
     83 H           7.1599    4.3624    0.0000 H       1  UNL1        0.0524
     84 H           2.4034    2.8049    0.0000 H       1  UNL1        0.0524
     85 H           1.5787    2.5070    0.0000 H       1  UNL1        0.0524
     86 H           1.2809    3.3317    0.0000 H       1  UNL1        0.0524
     87 H           1.3326    5.9060    0.0000 H       1  UNL1        0.0524
     88 H           2.0026    6.4716    0.0000 H       1  UNL1        0.0524
     89 H           2.5682    5.8016    0.0000 H       1  UNL1        0.0524
     90 H           8.5820   -0.2158    0.0000 H       1  UNL1        0.0626
     91 H           8.5820   -3.4558    0.0000 H       1  UNL1        0.0636
     92 H           9.9849   -1.0258    0.0000 H       1  UNL1        0.0618
     93 H           9.9849   -2.6458    0.0000 H       1  UNL1        0.0618
     94 H           6.8640   -5.3154    0.0000 H       1  UNL1        0.0396
     95 H           6.2278   -5.1521    0.0000 H       1  UNL1        0.0366
     96 H           5.7638   -4.4642    0.0000 H       1  UNL1        0.0366
     97 H           8.1891   -5.6829    0.0000 H       1  UNL1        0.0237
     98 H           7.7640   -6.4498    0.0000 H       1  UNL1        0.0237
     99 H           6.9971   -6.0247    0.0000 H       1  UNL1        0.0237
@<TRIPOS>BOND
     1    17     1    1
     2     1    71    1
     3    19     2    1
     4     2    72    1
     5    20     3    1
     6     3    33    1
     7    22     4    1
     8     4    35    1
     9    25     5    1
    10     5    36    1
    11    29     6    1
    12     6    37    1
    13     7    31    1
    14     7    38    1
    15     8    38    2
    16     9    45    2
    17    10    46    2
    18    11    15    1
    19    11    27    1
    20    11    32    1
    21    12    40    1
    22    12    45   am
    23    12    46   am
    24    13    14    1
    25    13    15    1
    26    13    16    1
    27    13    22    1
    28    14    20    1
    29    14    21    1
    30    14    50    1
    31    15    17    1
    32    15    51    1
    33    16    18    1
    34    16    23    1
    35    16    52    1
    36    17    19    1
    37    17    20    1
    38    18    19    1
    39    18    25    1
    40    18    53    1
    41    19    26    1
    42    20    54    1
    43    21    27    1
    44    21    28    1
    45    21    31    1
    46    22    30    1
    47    22    55    1
    48    23    24    1
    49    23    56    1
    50    23    57    1
    51    24    25    1
    52    24    29    1
    53    24    58    1
    54    25    59    1
    55    26    29    1
    56    26    60    1
    57    26    61    1
    58    27    62    1
    59    27    63    1
    60    28    30    1
    61    28    64    1
    62    28    65    1
    63    29    66    1
    64    30    67    1
    65    30    68    1
    66    31    69    1
    67    31    70    1
    68    32    34    1
    69    32    73    1
    70    32    74    1
    71    33    75    1
    72    33    76    1
    73    33    77    1
    74    34    78    1
    75    34    79    1
    76    34    80    1
    77    35    81    1
    78    35    82    1
    79    35    83    1
    80    36    84    1
    81    36    85    1
    82    36    86    1
    83    37    87    1
    84    37    88    1
    85    37    89    1
    86    38    39    1
    87    39    40   ar
    88    39    41   ar
    89    40    42   ar
    90    41    43   ar
    91    41    90    1
    92    42    44   ar
    93    42    91    1
    94    43    44   ar
    95    43    92    1
    96    44    93    1
    97    45    47    1
    98    46    48    1
    99    47    48    1
   100    47    49    1
   101    47    94    1
   102    48    95    1
   103    48    96    1
   104    49    97    1
   105    49    98    1
   106    49    99    1
