@<TRIPOS>MOLECULE
IMPHY007777
 34 36 0 0 0
SMALL
GASTEIGER

@<TRIPOS>ATOM
      1 CL          5.3958   -2.7186    0.0000 Cl      1  UNL1       -0.0790
      2 CL          3.2729   -2.4739    0.0000 Cl      1  UNL1       -0.0793
      3 O           5.3798    1.3229    0.0000 O.3     1  UNL1       -0.4796
      4 O           8.0479    1.8265    0.0000 O.3     1  UNL1       -0.3875
      5 O           3.5836    0.0861    0.0000 O.2     1  UNL1       -0.4547
      6 O           7.1279   -1.7186    0.0000 O.3     1  UNL1       -0.5049
      7 C           6.2778    1.8507    0.0000 C.3     1  UNL1        0.1312
      8 C           7.1799    1.3298    0.0000 C.3     1  UNL1        0.0984
      9 C           7.1719    0.2882    0.0000 C.3     1  UNL1        0.0093
     10 C           6.2619   -0.2186    0.0000 C.ar    1  UNL1        0.0434
     11 C           5.3958    0.2814    0.0000 C.ar    1  UNL1        0.1708
     12 C           6.7745    2.7186    0.0000 C.3     1  UNL1       -0.0227
     13 C           5.7745    2.7148    0.0000 C.3     1  UNL1       -0.0227
     14 C           4.5298   -0.2186    0.0000 C.ar    1  UNL1        0.1799
     15 C           6.2619   -1.2186    0.0000 C.ar    1  UNL1        0.1427
     16 C           4.5298   -1.2186    0.0000 C.ar    1  UNL1        0.0643
     17 C           5.3958   -1.7186    0.0000 C.ar    1  UNL1        0.0949
     18 C           3.5836   -1.5233    0.0000 C.ar    1  UNL1        0.0909
     19 C           3.0000   -0.7186    0.0000 C.ar    1  UNL1        0.1217
     20 C           2.0000   -0.7186    0.0000 C.3     1  UNL1       -0.0049
     21 H           7.1811    1.9498    0.0000 H       1  UNL1        0.0636
     22 H           7.3764   -0.2970    0.0000 H       1  UNL1        0.0342
     23 H           7.7835    0.3896    0.0000 H       1  UNL1        0.0342
     24 H           7.3126    2.4107    0.0000 H       1  UNL1        0.0269
     25 H           7.0824    3.2567    0.0000 H       1  UNL1        0.0269
     26 H           6.2364    3.0265    0.0000 H       1  UNL1        0.0269
     27 H           6.3102    3.0268    0.0000 H       1  UNL1        0.0269
     28 H           5.4624    3.2505    0.0000 H       1  UNL1        0.0269
     29 H           5.2388    2.4027    0.0000 H       1  UNL1        0.0269
     30 H           8.5836    1.5144    0.0000 H       1  UNL1        0.2100
     31 H           7.1279   -2.3386    0.0000 H       1  UNL1        0.2922
     32 H           2.0000   -0.0986    0.0000 H       1  UNL1        0.0308
     33 H           1.3800   -0.7186    0.0000 H       1  UNL1        0.0308
     34 H           2.0000   -1.3386    0.0000 H       1  UNL1        0.0308
@<TRIPOS>BOND
     1     1    17    1
     2     2    18    1
     3     3     7    1
     4     3    11    1
     5     4     8    1
     6     4    30    1
     7     5    14   ar
     8     5    19   ar
     9     6    15    1
    10     6    31    1
    11     7     8    1
    12     7    12    1
    13     7    13    1
    14     8     9    1
    15     8    21    1
    16     9    10    1
    17     9    22    1
    18     9    23    1
    19    10    11   ar
    20    10    15   ar
    21    11    14   ar
    22    12    24    1
    23    12    25    1
    24    12    26    1
    25    13    27    1
    26    13    28    1
    27    13    29    1
    28    14    16   ar
    29    15    17   ar
    30    16    17   ar
    31    16    18   ar
    32    18    19   ar
    33    19    20    1
    34    20    32    1
    35    20    33    1
    36    20    34    1
