@<TRIPOS>MOLECULE
IMPHY017515
 41 41 0 0 0
SMALL
GASTEIGER

@<TRIPOS>ATOM
      1 O           5.5981    1.7500    0.0000 O.3     1  UNL1       -0.4576
      2 O           4.7320    3.2500    0.0000 O.2     1  UNL1       -0.2511
      3 C           3.0000   -1.7500    0.0000 C.3     1  UNL1       -0.0099
      4 C           3.0000   -2.7500    0.0000 C.3     1  UNL1       -0.0436
      5 C           3.8660   -1.2500    0.0000 C.2     1  UNL1       -0.0429
      6 C           3.8660   -3.2500    0.0000 C.3     1  UNL1       -0.0486
      7 C           4.7320   -2.7500    0.0000 C.3     1  UNL1       -0.0314
      8 C           4.7320   -1.7500    0.0000 C.2     1  UNL1       -0.0689
      9 C           2.0000   -1.7500    0.0000 C.3     1  UNL1       -0.0558
     10 C           2.5000   -0.8840    0.0000 C.3     1  UNL1       -0.0558
     11 C           3.8660   -0.2500    0.0000 C.2     1  UNL1       -0.0586
     12 C           5.5981   -1.2500    0.0000 C.3     1  UNL1       -0.0432
     13 C           4.7320    0.2500    0.0000 C.2     1  UNL1       -0.0440
     14 C           4.7320    1.2500    0.0000 C.3     1  UNL1        0.1187
     15 C           3.8660    1.7500    0.0000 C.3     1  UNL1       -0.0240
     16 C           5.5981    2.7500    0.0000 C.2     1  UNL1        0.3045
     17 C           6.4641    3.2500    0.0000 C.3     1  UNL1        0.0333
     18 H           2.3894   -2.6423    0.0000 H       1  UNL1        0.0274
     19 H           2.7880   -3.3326    0.0000 H       1  UNL1        0.0274
     20 H           3.4675   -3.7250    0.0000 H       1  UNL1        0.0269
     21 H           4.2646   -3.7250    0.0000 H       1  UNL1        0.0269
     22 H           4.9441   -3.3326    0.0000 H       1  UNL1        0.0310
     23 H           5.3426   -2.6423    0.0000 H       1  UNL1        0.0310
     24 H           2.0000   -1.1300    0.0000 H       1  UNL1        0.0238
     25 H           1.3800   -1.7500    0.0000 H       1  UNL1        0.0238
     26 H           2.0000   -2.3700    0.0000 H       1  UNL1        0.0238
     27 H           3.0369   -0.5740    0.0000 H       1  UNL1        0.0238
     28 H           2.1900   -0.3470    0.0000 H       1  UNL1        0.0238
     29 H           1.9631   -1.1940    0.0000 H       1  UNL1        0.0238
     30 H           3.3291    0.0600    0.0000 H       1  UNL1        0.0618
     31 H           5.9081   -1.7869    0.0000 H       1  UNL1        0.0275
     32 H           6.1350   -0.9400    0.0000 H       1  UNL1        0.0275
     33 H           5.2881   -0.7131    0.0000 H       1  UNL1        0.0275
     34 H           5.2690   -0.0600    0.0000 H       1  UNL1        0.0608
     35 H           4.7320    1.8700    0.0000 H       1  UNL1        0.0776
     36 H           4.1760    2.2869    0.0000 H       1  UNL1        0.0268
     37 H           3.3291    2.0600    0.0000 H       1  UNL1        0.0268
     38 H           3.5560    1.2131    0.0000 H       1  UNL1        0.0268
     39 H           6.7741    2.7131    0.0000 H       1  UNL1        0.0342
     40 H           7.0010    3.5600    0.0000 H       1  UNL1        0.0342
     41 H           6.1541    3.7869    0.0000 H       1  UNL1        0.0342
@<TRIPOS>BOND
     1     1    14    1
     2     1    16    1
     3     2    16    2
     4     3     4    1
     5     3     5    1
     6     3     9    1
     7     3    10    1
     8     4     6    1
     9     4    18    1
    10     4    19    1
    11     5     8    2
    12     5    11    1
    13     6     7    1
    14     6    20    1
    15     6    21    1
    16     7     8    1
    17     7    22    1
    18     7    23    1
    19     8    12    1
    20     9    24    1
    21     9    25    1
    22     9    26    1
    23    10    27    1
    24    10    28    1
    25    10    29    1
    26    11    13    2
    27    11    30    1
    28    12    31    1
    29    12    32    1
    30    12    33    1
    31    13    14    1
    32    13    34    1
    33    14    15    1
    34    14    35    1
    35    15    36    1
    36    15    37    1
    37    15    38    1
    38    16    17    1
    39    17    39    1
    40    17    40    1
    41    17    41    1
