@<TRIPOS>MOLECULE
IMPHY007820
 38 39 0 0 0
SMALL
GASTEIGER

@<TRIPOS>ATOM
      1 O           4.8660    1.0490    0.0000 O.3     1  UNL1       -0.3632
      2 C           4.0000    0.5490    0.0000 C.3     1  UNL1        0.0923
      3 C           4.8660    2.0490    0.0000 C.3     1  UNL1        0.0651
      4 C           3.1340    1.0490    0.0000 C.3     1  UNL1       -0.0197
      5 C           4.0000    2.5490    0.0000 C.3     1  UNL1       -0.0241
      6 C           3.1340    2.0490    0.0000 C.3     1  UNL1       -0.0476
      7 C           3.5000   -0.3170    0.0000 C.ar    1  UNL1       -0.0161
      8 C           4.5000   -0.3170    0.0000 C.3     1  UNL1       -0.0316
      9 C           5.3660    2.9151    0.0000 C.3     1  UNL1       -0.0360
     10 C           5.8660    2.0490    0.0000 C.3     1  UNL1       -0.0360
     11 C           2.5000   -0.3170    0.0000 C.ar    1  UNL1       -0.0556
     12 C           4.0000   -1.1830    0.0000 C.ar    1  UNL1       -0.0556
     13 C           2.0000   -1.1830    0.0000 C.ar    1  UNL1       -0.0585
     14 C           3.5000   -2.0490    0.0000 C.ar    1  UNL1       -0.0585
     15 C           2.5000   -2.0490    0.0000 C.ar    1  UNL1       -0.0504
     16 C           2.0000   -2.9151    0.0000 C.3     1  UNL1       -0.0397
     17 H           2.5234    1.1567    0.0000 H       1  UNL1        0.0296
     18 H           2.9219    0.4664    0.0000 H       1  UNL1        0.0296
     19 H           4.3985    3.0240    0.0000 H       1  UNL1        0.0293
     20 H           3.6015    3.0240    0.0000 H       1  UNL1        0.0293
     21 H           2.9219    2.6316    0.0000 H       1  UNL1        0.0267
     22 H           2.5234    1.9414    0.0000 H       1  UNL1        0.0267
     23 H           3.9631   -0.6270    0.0000 H       1  UNL1        0.0261
     24 H           4.8100   -0.8539    0.0000 H       1  UNL1        0.0261
     25 H           5.0369   -0.0070    0.0000 H       1  UNL1        0.0261
     26 H           5.9030    2.6051    0.0000 H       1  UNL1        0.0257
     27 H           5.6760    3.4520    0.0000 H       1  UNL1        0.0257
     28 H           4.8291    3.2251    0.0000 H       1  UNL1        0.0257
     29 H           5.8660    1.4290    0.0000 H       1  UNL1        0.0257
     30 H           6.4860    2.0490    0.0000 H       1  UNL1        0.0257
     31 H           5.8660    2.6690    0.0000 H       1  UNL1        0.0257
     32 H           2.1900    0.2199    0.0000 H       1  UNL1        0.0621
     33 H           4.6200   -1.1830    0.0000 H       1  UNL1        0.0621
     34 H           1.3800   -1.1830    0.0000 H       1  UNL1        0.0620
     35 H           3.8100   -2.5860    0.0000 H       1  UNL1        0.0620
     36 H           1.4631   -2.6051    0.0000 H       1  UNL1        0.0278
     37 H           1.6900   -3.4520    0.0000 H       1  UNL1        0.0278
     38 H           2.5369   -3.2251    0.0000 H       1  UNL1        0.0278
@<TRIPOS>BOND
     1     1     2    1
     2     1     3    1
     3     2     4    1
     4     2     7    1
     5     2     8    1
     6     3     5    1
     7     3     9    1
     8     3    10    1
     9     4     6    1
    10     4    17    1
    11     4    18    1
    12     5     6    1
    13     5    19    1
    14     5    20    1
    15     6    21    1
    16     6    22    1
    17     7    11   ar
    18     7    12   ar
    19     8    23    1
    20     8    24    1
    21     8    25    1
    22     9    26    1
    23     9    27    1
    24     9    28    1
    25    10    29    1
    26    10    30    1
    27    10    31    1
    28    11    13   ar
    29    11    32    1
    30    12    14   ar
    31    12    33    1
    32    13    15   ar
    33    13    34    1
    34    14    15   ar
    35    14    35    1
    36    15    16    1
    37    16    36    1
    38    16    37    1
    39    16    38    1
