@<TRIPOS>MOLECULE
IMPHY014013
 37 39 0 0 0
SMALL
GASTEIGER

@<TRIPOS>ATOM
      1 O           8.1663   -0.6197    0.0000 O.3     1  UNL1       -0.4910
      2 O           8.1821    1.4286    0.0000 O.3     1  UNL1       -0.4885
      3 O           3.7817    0.9181    0.0000 O.3     1  UNL1       -0.5060
      4 O           6.4082    2.4527    0.0000 O.3     1  UNL1       -0.5032
      5 O           2.0000   -2.1407    0.0000 O.3     1  UNL1       -0.5066
      6 C           6.3961   -1.6165    0.0000 C.3     1  UNL1       -0.0195
      7 C           5.5301   -2.1165    0.0000 C.3     1  UNL1       -0.0228
      8 C           6.3961   -0.6165    0.0000 C.ar    1  UNL1        0.0063
      9 C           5.5301   -0.1165    0.0000 C.ar    1  UNL1       -0.0038
     10 C           4.6641   -1.6165    0.0000 C.ar    1  UNL1       -0.0324
     11 C           4.6641   -0.6165    0.0000 C.ar    1  UNL1        0.0275
     12 C           7.3062   -0.1097    0.0000 C.ar    1  UNL1        0.1689
     13 C           5.5141    0.9250    0.0000 C.ar    1  UNL1       -0.0082
     14 C           3.7702   -0.0819    0.0000 C.ar    1  UNL1        0.1283
     15 C           3.7702   -2.1512    0.0000 C.ar    1  UNL1       -0.0162
     16 C           7.3142    0.9319    0.0000 C.ar    1  UNL1        0.2036
     17 C           6.4121    1.4527    0.0000 C.ar    1  UNL1        0.1628
     18 C           2.8641   -1.6373    0.0000 C.ar    1  UNL1        0.1206
     19 C           2.8641   -0.5957    0.0000 C.ar    1  UNL1        0.0219
     20 C           9.0381   -0.1297    0.0000 C.3     1  UNL1        0.0790
     21 C           8.1860    2.4286    0.0000 C.3     1  UNL1        0.0791
     22 H           6.6082   -2.1991    0.0000 H       1  UNL1        0.0318
     23 H           7.0067   -1.5089    0.0000 H       1  UNL1        0.0318
     24 H           5.1316   -2.5915    0.0000 H       1  UNL1        0.0317
     25 H           5.9286   -2.5915    0.0000 H       1  UNL1        0.0317
     26 H           4.9736    1.2288    0.0000 H       1  UNL1        0.0661
     27 H           3.7773   -2.7711    0.0000 H       1  UNL1        0.0657
     28 H           2.3284   -0.2836    0.0000 H       1  UNL1        0.0691
     29 H           3.2484    1.2343    0.0000 H       1  UNL1        0.2922
     30 H           5.8701    2.7607    0.0000 H       1  UNL1        0.2923
     31 H           9.3419   -0.6702    0.0000 H       1  UNL1        0.0660
     32 H           9.5786    0.1741    0.0000 H       1  UNL1        0.0660
     33 H           8.7343    0.4108    0.0000 H       1  UNL1        0.0660
     34 H           2.0024   -2.7607    0.0000 H       1  UNL1        0.2921
     35 H           8.8060    2.4262    0.0000 H       1  UNL1        0.0660
     36 H           8.1884    3.0486    0.0000 H       1  UNL1        0.0660
     37 H           7.5660    2.4310    0.0000 H       1  UNL1        0.0660
@<TRIPOS>BOND
     1     1    12    1
     2     1    20    1
     3     2    16    1
     4     2    21    1
     5     3    14    1
     6     3    29    1
     7     4    17    1
     8     4    30    1
     9     5    18    1
    10     5    34    1
    11     6     7    1
    12     6     8    1
    13     6    22    1
    14     6    23    1
    15     7    10    1
    16     7    24    1
    17     7    25    1
    18     8     9   ar
    19     8    12   ar
    20     9    11    1
    21     9    13   ar
    22    10    11   ar
    23    10    15   ar
    24    11    14   ar
    25    12    16   ar
    26    13    17   ar
    27    13    26    1
    28    14    19   ar
    29    15    18   ar
    30    15    27    1
    31    16    17   ar
    32    18    19   ar
    33    19    28    1
    34    20    31    1
    35    20    32    1
    36    20    33    1
    37    21    35    1
    38    21    36    1
    39    21    37    1
