@<TRIPOS>MOLECULE
IMPHY002471
 72 72 0 0 0
SMALL
GASTEIGER

@<TRIPOS>ATOM
      1 O           4.2690   -5.0950    0.0000 O.3     1  UNL1       -0.3312
      2 O           2.5369   -7.0950    0.0000 O.3     1  UNL1       -0.3865
      3 O           4.2690   -8.0950    0.0000 O.3     1  UNL1       -0.3864
      4 O           6.0010   -7.0950    0.0000 O.3     1  UNL1       -0.3829
      5 O           6.0010   -5.0950    0.0000 O.3     1  UNL1       -0.4290
      6 O           2.5369   -4.0950    0.0000 O.3     1  UNL1       -0.3924
      7 O           5.1350   -3.5950    0.0000 O.2     1  UNL1       -0.2452
      8 O          12.9292    7.9050    0.0000 O.3     1  UNL1       -0.4647
      9 O          13.7953    6.4050    0.0000 O.2     1  UNL1       -0.2453
     10 C           3.4030   -6.5950    0.0000 C.3     1  UNL1        0.1120
     11 C           4.2690   -7.0950    0.0000 C.3     1  UNL1        0.1152
     12 C           3.4030   -5.5950    0.0000 C.3     1  UNL1        0.1140
     13 C           5.1350   -6.5950    0.0000 C.3     1  UNL1        0.1455
     14 C           5.1350   -5.5950    0.0000 C.3     1  UNL1        0.2341
     15 C           2.5369   -5.0950    0.0000 C.3     1  UNL1        0.0731
     16 C           6.0010   -4.0950    0.0000 C.2     1  UNL1        0.3371
     17 C           6.8671   -3.5950    0.0000 C.2     1  UNL1        0.0336
     18 C           7.7331   -4.0950    0.0000 C.3     1  UNL1       -0.0329
     19 C           6.8671   -2.5950    0.0000 C.2     1  UNL1       -0.0521
     20 C           7.7331   -2.0950    0.0000 C.2     1  UNL1       -0.0610
     21 C           7.7331   -1.0950    0.0000 C.2     1  UNL1       -0.0588
     22 C           8.5991   -0.5950    0.0000 C.2     1  UNL1       -0.0504
     23 C           9.4651   -1.0950    0.0000 C.3     1  UNL1       -0.0397
     24 C           8.5991    0.4050    0.0000 C.2     1  UNL1       -0.0588
     25 C           9.4651    0.9050    0.0000 C.2     1  UNL1       -0.0615
     26 C           9.4651    1.9050    0.0000 C.2     1  UNL1       -0.0615
     27 C          10.3312    3.4050    0.0000 C.2     1  UNL1       -0.0504
     28 C          10.3312    2.4050    0.0000 C.2     1  UNL1       -0.0588
     29 C          11.1972    3.9050    0.0000 C.2     1  UNL1       -0.0588
     30 C           9.4651    3.9050    0.0000 C.3     1  UNL1       -0.0397
     31 C          11.1972    4.9050    0.0000 C.2     1  UNL1       -0.0610
     32 C          12.0632    5.4050    0.0000 C.2     1  UNL1       -0.0521
     33 C          12.0632    6.4050    0.0000 C.2     1  UNL1        0.0335
     34 C          11.1972    6.9050    0.0000 C.3     1  UNL1       -0.0329
     35 C          12.9292    6.9050    0.0000 C.2     1  UNL1        0.3346
     36 C          13.7953    8.4050    0.0000 C.3     1  UNL1        0.0820
     37 H           3.4030   -7.2150    0.0000 H       1  UNL1        0.0647
     38 H           4.8059   -7.4050    0.0000 H       1  UNL1        0.0648
     39 H           3.4030   -4.9750    0.0000 H       1  UNL1        0.0647
     40 H           5.6720   -6.2850    0.0000 H       1  UNL1        0.0683
     41 H           5.1350   -4.9750    0.0000 H       1  UNL1        0.1085
     42 H           1.9264   -4.9873    0.0000 H       1  UNL1        0.0584
     43 H           2.3249   -5.6776    0.0000 H       1  UNL1        0.0584
     44 H           2.0000   -6.7850    0.0000 H       1  UNL1        0.2100
     45 H           3.7320   -8.4050    0.0000 H       1  UNL1        0.2100
     46 H           6.5380   -6.7850    0.0000 H       1  UNL1        0.2102
     47 H           2.0000   -3.7850    0.0000 H       1  UNL1        0.2095
     48 H           7.4231   -4.6319    0.0000 H       1  UNL1        0.0280
     49 H           8.2700   -4.4050    0.0000 H       1  UNL1        0.0280
     50 H           8.0431   -3.5581    0.0000 H       1  UNL1        0.0280
     51 H           6.3301   -2.2850    0.0000 H       1  UNL1        0.0622
     52 H           8.2700   -2.4050    0.0000 H       1  UNL1        0.0618
     53 H           7.1962   -0.7850    0.0000 H       1  UNL1        0.0620
     54 H           9.1551   -1.6319    0.0000 H       1  UNL1        0.0278
     55 H          10.0021   -1.4050    0.0000 H       1  UNL1        0.0278
     56 H           9.7751   -0.5581    0.0000 H       1  UNL1        0.0278
     57 H           8.0622    0.7150    0.0000 H       1  UNL1        0.0620
     58 H          10.0021    0.5950    0.0000 H       1  UNL1        0.0618
     59 H           8.9282    2.2150    0.0000 H       1  UNL1        0.0618
     60 H          10.8681    2.0950    0.0000 H       1  UNL1        0.0620
     61 H          11.7341    3.5950    0.0000 H       1  UNL1        0.0620
     62 H           9.7751    4.4419    0.0000 H       1  UNL1        0.0278
     63 H           8.9282    4.2150    0.0000 H       1  UNL1        0.0278
     64 H           9.1551    3.3681    0.0000 H       1  UNL1        0.0278
     65 H          10.6603    5.2150    0.0000 H       1  UNL1        0.0618
     66 H          12.6002    5.0950    0.0000 H       1  UNL1        0.0622
     67 H          11.5072    7.4419    0.0000 H       1  UNL1        0.0280
     68 H          10.6603    7.2150    0.0000 H       1  UNL1        0.0280
     69 H          10.8872    6.3681    0.0000 H       1  UNL1        0.0280
     70 H          14.1053    7.8681    0.0000 H       1  UNL1        0.0661
     71 H          14.3322    8.7150    0.0000 H       1  UNL1        0.0661
     72 H          13.4853    8.9419    0.0000 H       1  UNL1        0.0661
@<TRIPOS>BOND
     1     1    12    1
     2     1    14    1
     3    10     2    1
     4     2    44    1
     5    11     3    1
     6     3    45    1
     7    13     4    1
     8     4    46    1
     9    14     5    1
    10     5    16    1
    11     6    15    1
    12     6    47    1
    13     7    16    2
    14     8    35    1
    15     8    36    1
    16     9    35    2
    17    10    11    1
    18    10    12    1
    19    10    37    1
    20    11    13    1
    21    11    38    1
    22    12    15    1
    23    12    39    1
    24    13    14    1
    25    13    40    1
    26    14    41    1
    27    15    42    1
    28    15    43    1
    29    16    17    1
    30    17    18    1
    31    17    19    2
    32    18    48    1
    33    18    49    1
    34    18    50    1
    35    19    20    1
    36    19    51    1
    37    20    21    2
    38    20    52    1
    39    21    22    1
    40    21    53    1
    41    22    23    1
    42    22    24    2
    43    23    54    1
    44    23    55    1
    45    23    56    1
    46    24    25    1
    47    24    57    1
    48    25    26    2
    49    25    58    1
    50    26    28    1
    51    26    59    1
    52    27    28    2
    53    27    29    1
    54    27    30    1
    55    28    60    1
    56    29    31    2
    57    29    61    1
    58    30    62    1
    59    30    63    1
    60    30    64    1
    61    31    32    1
    62    31    65    1
    63    32    33    2
    64    32    66    1
    65    33    34    1
    66    33    35    1
    67    34    67    1
    68    34    68    1
    69    34    69    1
    70    36    70    1
    71    36    71    1
    72    36    72    1
