@<TRIPOS>MOLECULE
IMPHY001893
 46 49 0 0 0
SMALL
GASTEIGER

@<TRIPOS>ATOM
      1 O           3.8000    0.2350    0.0000 O.3     1  UNL1       -0.3856
      2 N           6.2236    1.4507    0.0000 N.3     1  UNL1       -0.2963
      3 N           4.6660   -3.2650    0.0000 N.ar    1  UNL1       -0.2550
      4 C           7.0897    1.9507    0.0000 C.3     1  UNL1       -0.0344
      5 C           8.4789    1.3986    0.0000 C.3     1  UNL1       -0.0256
      6 C           5.5321    0.2350    0.0000 C.3     1  UNL1        0.0408
      7 C           6.4980   -0.0238    0.0000 C.3     1  UNL1       -0.0314
      8 C           8.0563    0.4923    0.0000 C.3     1  UNL1        0.0023
      9 C           6.4603    3.2997    0.0000 C.3     1  UNL1       -0.0370
     10 C           5.5942    2.7997    0.0000 C.3     1  UNL1       -0.0005
     11 C           9.4186    1.7407    0.0000 C.3     1  UNL1       -0.0516
     12 C           4.6660   -0.2650    0.0000 C.3     1  UNL1        0.0963
     13 C           4.6660   -1.2650    0.0000 C.ar    1  UNL1       -0.0071
     14 C          10.1847    1.0979    0.0000 C.3     1  UNL1       -0.0650
     15 C           3.8000   -1.7650    0.0000 C.ar    1  UNL1        0.0061
     16 C           5.5321   -1.7650    0.0000 C.ar    1  UNL1       -0.0373
     17 C           3.8000   -2.7650    0.0000 C.ar    1  UNL1        0.0713
     18 C           2.9061   -1.2303    0.0000 C.ar    1  UNL1       -0.0522
     19 C           5.5321   -2.7650    0.0000 C.ar    1  UNL1        0.0286
     20 C           2.9061   -3.2997    0.0000 C.ar    1  UNL1       -0.0357
     21 C           2.0000   -1.7442    0.0000 C.ar    1  UNL1       -0.0611
     22 C           2.0000   -2.7858    0.0000 C.ar    1  UNL1       -0.0597
     23 H           7.8258    2.3757    0.0000 H       1  UNL1        0.0305
     24 H           8.4880    2.0186    0.0000 H       1  UNL1        0.0316
     25 H           6.3163    0.5628    0.0000 H       1  UNL1        0.0491
     26 H           6.3317   -0.6211    0.0000 H       1  UNL1        0.0284
     27 H           7.0936   -0.1960    0.0000 H       1  UNL1        0.0284
     28 H           7.7774   -0.0614    0.0000 H       1  UNL1        0.0429
     29 H           8.6142    0.2218    0.0000 H       1  UNL1        0.0429
     30 H           7.0143    3.5780    0.0000 H       1  UNL1        0.0280
     31 H           6.1660    3.8454    0.0000 H       1  UNL1        0.0280
     32 H           5.2999    3.3454    0.0000 H       1  UNL1        0.0427
     33 H           5.0402    2.5213    0.0000 H       1  UNL1        0.0427
     34 H           9.8936    2.1392    0.0000 H       1  UNL1        0.0266
     35 H           9.1086    2.2776    0.0000 H       1  UNL1        0.0266
     36 H           4.6660    0.3550    0.0000 H       1  UNL1        0.0659
     37 H           9.7861    0.6229    0.0000 H       1  UNL1        0.0230
     38 H          10.6596    0.6994    0.0000 H       1  UNL1        0.0230
     39 H          10.5832    1.5728    0.0000 H       1  UNL1        0.0230
     40 H           3.8000    0.8550    0.0000 H       1  UNL1        0.2103
     41 H           6.0690   -1.4550    0.0000 H       1  UNL1        0.0636
     42 H           2.9132   -0.6104    0.0000 H       1  UNL1        0.0624
     43 H           6.0690   -3.0750    0.0000 H       1  UNL1        0.0830
     44 H           2.9132   -3.9196    0.0000 H       1  UNL1        0.0639
     45 H           1.4643   -1.4321    0.0000 H       1  UNL1        0.0618
     46 H           1.4643   -3.0979    0.0000 H       1  UNL1        0.0618
@<TRIPOS>BOND
     1    12     1    1
     2     1    40    1
     3     2     6    1
     4     2     8    1
     5     2    10    1
     6     3    17   ar
     7     3    19   ar
     8     4     5    1
     9     4     7    1
    10     4     9    1
    11     4    23    1
    12     5     8    1
    13     5    11    1
    14     5    24    1
    15     6     7    1
    16     6    12    1
    17     6    25    1
    18     7    26    1
    19     7    27    1
    20     8    28    1
    21     8    29    1
    22     9    10    1
    23     9    30    1
    24     9    31    1
    25    10    32    1
    26    10    33    1
    27    11    14    1
    28    11    34    1
    29    11    35    1
    30    12    13    1
    31    12    36    1
    32    13    15   ar
    33    13    16   ar
    34    14    37    1
    35    14    38    1
    36    14    39    1
    37    15    17   ar
    38    15    18   ar
    39    16    19   ar
    40    16    41    1
    41    17    20   ar
    42    18    21   ar
    43    18    42    1
    44    19    43    1
    45    20    22   ar
    46    20    44    1
    47    21    22   ar
    48    21    45    1
    49    22    46    1
