@<TRIPOS>MOLECULE
IMPHY014992
 51 54 0 0 0
SMALL
GASTEIGER

@<TRIPOS>ATOM
      1 O           5.1350   -1.6796    0.0000 O.3     1  UNL1       -0.3221
      2 O           6.8671   -1.6796    0.0000 O.3     1  UNL1       -0.4606
      3 O           5.1350   -4.6796    0.0000 O.3     1  UNL1       -0.3863
      4 O           6.8671   -3.6796    0.0000 O.3     1  UNL1       -0.3829
      5 O           3.4030   -3.6796    0.0000 O.3     1  UNL1       -0.3860
      6 O           2.5369   -2.1796    0.0000 O.3     1  UNL1       -0.4788
      7 O           3.4030   -0.6796    0.0000 O.2     1  UNL1       -0.2480
      8 O           8.6230    1.3829    0.0000 O.2     1  UNL1       -0.4544
      9 O           5.1208    1.3996    0.0000 O.3     1  UNL1       -0.5058
     10 O           6.0308    2.8930    0.0000 O.2     1  UNL1       -0.2869
     11 O          12.0910    2.3696    0.0000 O.3     1  UNL1       -0.5033
     12 O          12.0987    4.3696    0.0000 O.3     1  UNL1       -0.5033
     13 C           5.1350   -3.6796    0.0000 C.3     1  UNL1        0.1157
     14 C           6.0010   -3.1796    0.0000 C.3     1  UNL1        0.1455
     15 C           4.2690   -3.1796    0.0000 C.3     1  UNL1        0.1202
     16 C           4.2690   -2.1796    0.0000 C.3     1  UNL1        0.1869
     17 C           6.0010   -2.1796    0.0000 C.3     1  UNL1        0.2312
     18 C           3.4030   -1.6796    0.0000 C.2     1  UNL1        0.3367
     19 C           6.8671   -0.6796    0.0000 C.ar    1  UNL1        0.1310
     20 C           7.7671   -0.1553    0.0000 C.ar    1  UNL1        0.0235
     21 C           5.9670   -0.1553    0.0000 C.ar    1  UNL1        0.0226
     22 C           7.7551    0.8863    0.0000 C.ar    1  UNL1        0.1462
     23 C           6.8910    1.3896    0.0000 C.ar    1  UNL1        0.1055
     24 C           5.9790    0.8863    0.0000 C.ar    1  UNL1        0.1347
     25 C           6.8948    2.3896    0.0000 C.ar    1  UNL1        0.1966
     26 C           8.6269    2.3829    0.0000 C.ar    1  UNL1        0.1393
     27 C           7.7628    2.8863    0.0000 C.ar    1  UNL1        0.0288
     28 C           9.4948    2.8796    0.0000 C.ar    1  UNL1        0.0211
     29 C          10.3589    2.3763    0.0000 C.ar    1  UNL1       -0.0059
     30 C           9.4987    3.8796    0.0000 C.ar    1  UNL1       -0.0474
     31 C          11.2269    2.8729    0.0000 C.ar    1  UNL1        0.1589
     32 C          10.3666    4.3762    0.0000 C.ar    1  UNL1       -0.0159
     33 C          11.2307    3.8729    0.0000 C.ar    1  UNL1        0.1583
     34 H           4.5981   -3.9896    0.0000 H       1  UNL1        0.0648
     35 H           6.0010   -3.7996    0.0000 H       1  UNL1        0.0683
     36 H           3.7320   -2.8696    0.0000 H       1  UNL1        0.0652
     37 H           4.2690   -1.5596    0.0000 H       1  UNL1        0.0742
     38 H           6.5380   -2.4896    0.0000 H       1  UNL1        0.1084
     39 H           5.6720   -4.9896    0.0000 H       1  UNL1        0.2100
     40 H           7.4040   -3.3696    0.0000 H       1  UNL1        0.2102
     41 H           3.4030   -4.2996    0.0000 H       1  UNL1        0.2100
     42 H           8.3064   -0.4611    0.0000 H       1  UNL1        0.0691
     43 H           5.4277   -0.4611    0.0000 H       1  UNL1        0.0691
     44 H           2.0000   -1.8696    0.0000 H       1  UNL1        0.2951
     45 H           7.7652    3.5063    0.0000 H       1  UNL1        0.0693
     46 H           4.5792    1.0979    0.0000 H       1  UNL1        0.2922
     47 H          10.3565    1.7563    0.0000 H       1  UNL1        0.0662
     48 H           8.9630    4.1916    0.0000 H       1  UNL1        0.0626
     49 H          10.3690    4.9962    0.0000 H       1  UNL1        0.0655
     50 H          12.6291    2.6775    0.0000 H       1  UNL1        0.2923
     51 H          12.1011    4.9896    0.0000 H       1  UNL1        0.2923
@<TRIPOS>BOND
     1     1    16    1
     2     1    17    1
     3     2    17    1
     4     2    19    1
     5     3    13    1
     6     3    39    1
     7     4    14    1
     8     4    40    1
     9     5    15    1
    10     5    41    1
    11     6    18    1
    12     6    44    1
    13     7    18    2
    14     8    22   ar
    15     8    26   ar
    16     9    24    1
    17     9    46    1
    18    10    25    2
    19    11    31    1
    20    11    50    1
    21    12    33    1
    22    12    51    1
    23    13    14    1
    24    13    15    1
    25    13    34    1
    26    14    17    1
    27    14    35    1
    28    15    16    1
    29    15    36    1
    30    16    18    1
    31    16    37    1
    32    17    38    1
    33    19    20   ar
    34    19    21   ar
    35    20    22   ar
    36    20    42    1
    37    21    24   ar
    38    21    43    1
    39    22    23   ar
    40    23    24   ar
    41    23    25   ar
    42    25    27   ar
    43    26    27   ar
    44    26    28    1
    45    27    45    1
    46    28    29   ar
    47    28    30   ar
    48    29    31   ar
    49    29    47    1
    50    30    32   ar
    51    30    48    1
    52    31    33   ar
    53    32    33   ar
    54    32    49    1
