@<TRIPOS>MOLECULE
IMPHY011361
 23 23 0 0 0
SMALL
GASTEIGER

@<TRIPOS>ATOM
      1 O           2.8660   -3.0600    0.0000 O.3     1  UNL1       -0.4951
      2 O           4.5981    2.9400    0.0000 O.3     1  UNL1       -0.4775
      3 O           2.8660    2.9400    0.0000 O.2     1  UNL1       -0.2458
      4 C           2.8660   -0.0600    0.0000 C.ar    1  UNL1       -0.0246
      5 C           2.8660   -2.0600    0.0000 C.ar    1  UNL1        0.1201
      6 C           2.0000   -0.5600    0.0000 C.ar    1  UNL1       -0.0511
      7 C           3.7320   -0.5600    0.0000 C.ar    1  UNL1       -0.0511
      8 C           2.0000   -1.5600    0.0000 C.ar    1  UNL1       -0.0194
      9 C           3.7320   -1.5600    0.0000 C.ar    1  UNL1       -0.0194
     10 C           2.8660    0.9400    0.0000 C.2     1  UNL1       -0.0478
     11 C           3.7320    1.4400    0.0000 C.2     1  UNL1        0.0229
     12 C           2.0000   -3.5600    0.0000 C.3     1  UNL1        0.0788
     13 C           3.7320    2.4400    0.0000 C.2     1  UNL1        0.3296
     14 H           1.4631   -0.2500    0.0000 H       1  UNL1        0.0625
     15 H           4.2690   -0.2500    0.0000 H       1  UNL1        0.0625
     16 H           1.4631   -1.8700    0.0000 H       1  UNL1        0.0654
     17 H           4.2690   -1.8700    0.0000 H       1  UNL1        0.0654
     18 H           2.3291    1.2500    0.0000 H       1  UNL1        0.0626
     19 H           4.2690    1.1300    0.0000 H       1  UNL1        0.0689
     20 H           1.6900   -3.0231    0.0000 H       1  UNL1        0.0660
     21 H           1.4631   -3.8700    0.0000 H       1  UNL1        0.0660
     22 H           2.3100   -4.0969    0.0000 H       1  UNL1        0.0660
     23 H           4.5981    3.5600    0.0000 H       1  UNL1        0.2954
@<TRIPOS>BOND
     1     1     5    1
     2     1    12    1
     3     2    13    1
     4     2    23    1
     5     3    13    2
     6     4     6   ar
     7     4     7   ar
     8     4    10    1
     9     5     8   ar
    10     5     9   ar
    11     6     8   ar
    12     6    14    1
    13     7     9   ar
    14     7    15    1
    15     8    16    1
    16     9    17    1
    17    10    11    2
    18    10    18    1
    19    11    13    1
    20    11    19    1
    21    12    20    1
    22    12    21    1
    23    12    22    1
