@<TRIPOS>MOLECULE
IMPHY016065
 20 19 0 0 0
SMALL
GASTEIGER

@<TRIPOS>ATOM
      1 O           2.8660   -1.0600    0.0000 O.2     1  UNL1       -0.2930
      2 C           6.3301   -0.0600    0.0000 C.3     1  UNL1       -0.0525
      3 C           5.4641    0.4400    0.0000 C.3     1  UNL1       -0.0346
      4 C           7.1962    0.4400    0.0000 C.3     1  UNL1       -0.0650
      5 C           4.5981   -0.0600    0.0000 C.2     1  UNL1       -0.0807
      6 C           3.7320    0.4400    0.0000 C.2     1  UNL1       -0.0234
      7 C           2.8660   -0.0600    0.0000 C.2     1  UNL1        0.1527
      8 C           2.0000    0.4400    0.0000 C.3     1  UNL1       -0.0020
      9 H           5.9316   -0.5349    0.0000 H       1  UNL1        0.0266
     10 H           6.7287   -0.5349    0.0000 H       1  UNL1        0.0266
     11 H           5.8626    0.9149    0.0000 H       1  UNL1        0.0307
     12 H           5.0656    0.9149    0.0000 H       1  UNL1        0.0307
     13 H           7.5062   -0.0969    0.0000 H       1  UNL1        0.0230
     14 H           7.7331    0.7500    0.0000 H       1  UNL1        0.0230
     15 H           6.8862    0.9769    0.0000 H       1  UNL1        0.0230
     16 H           4.5981   -0.6800    0.0000 H       1  UNL1        0.0573
     17 H           3.7320    1.0600    0.0000 H       1  UNL1        0.0649
     18 H           2.3100    0.9769    0.0000 H       1  UNL1        0.0309
     19 H           1.4631    0.7500    0.0000 H       1  UNL1        0.0309
     20 H           1.6900   -0.0969    0.0000 H       1  UNL1        0.0309
@<TRIPOS>BOND
     1     1     7    2
     2     2     3    1
     3     2     4    1
     4     2     9    1
     5     2    10    1
     6     3     5    1
     7     3    11    1
     8     3    12    1
     9     4    13    1
    10     4    14    1
    11     4    15    1
    12     5     6    2
    13     5    16    1
    14     6     7    1
    15     6    17    1
    16     7     8    1
    17     8    18    1
    18     8    19    1
    19     8    20    1
