@<TRIPOS>MOLECULE
IMPHY016358
 26 26 0 0 0
SMALL
GASTEIGER

@<TRIPOS>ATOM
      1 C           2.0000    0.3586    0.0000 C.3     1  UNL1       -0.0522
      2 C           2.7071   -0.3485    0.0000 C.3     1  UNL1       -0.0433
      3 C           2.0000    1.3586    0.0000 C.3     1  UNL1       -0.0528
      4 C           3.7071   -0.3485    0.0000 C.3     1  UNL1       -0.0051
      5 C           2.7071    2.0657    0.0000 C.3     1  UNL1       -0.0496
      6 C           3.7071    2.0657    0.0000 C.3     1  UNL1       -0.0347
      7 C           4.4142    0.3586    0.0000 C.2     1  UNL1       -0.0811
      8 C           4.4142    1.3586    0.0000 C.2     1  UNL1       -0.0874
      9 C           4.0898   -1.2724    0.0000 C.2     1  UNL1       -0.0843
     10 C           3.4810   -2.0657    0.0000 C.2     1  UNL1       -0.1021
     11 H           1.4011    0.5191    0.0000 H       1  UNL1        0.0266
     12 H           1.6900   -0.1783    0.0000 H       1  UNL1        0.0266
     13 H           2.1702   -0.6585    0.0000 H       1  UNL1        0.0274
     14 H           2.8676   -0.9474    0.0000 H       1  UNL1        0.0274
     15 H           1.6900    1.8956    0.0000 H       1  UNL1        0.0265
     16 H           1.4011    1.1982    0.0000 H       1  UNL1        0.0265
     17 H           3.3626   -0.8640    0.0000 H       1  UNL1        0.0385
     18 H           2.8676    2.6646    0.0000 H       1  UNL1        0.0268
     19 H           2.1702    2.3757    0.0000 H       1  UNL1        0.0268
     20 H           4.2440    2.3757    0.0000 H       1  UNL1        0.0307
     21 H           3.5466    2.6646    0.0000 H       1  UNL1        0.0307
     22 H           4.9870    0.1214    0.0000 H       1  UNL1        0.0575
     23 H           4.9870    1.5959    0.0000 H       1  UNL1        0.0569
     24 H           4.7045   -1.3533    0.0000 H       1  UNL1        0.0572
     25 H           2.8663   -1.9848    0.0000 H       1  UNL1        0.0532
     26 H           3.7183   -2.6385    0.0000 H       1  UNL1        0.0532
@<TRIPOS>BOND
     1     1     2    1
     2     1     3    1
     3     1    11    1
     4     1    12    1
     5     2     4    1
     6     2    13    1
     7     2    14    1
     8     3     5    1
     9     3    15    1
    10     3    16    1
    11     4     7    1
    12     4     9    1
    13     4    17    1
    14     5     6    1
    15     5    18    1
    16     5    19    1
    17     6     8    1
    18     6    20    1
    19     6    21    1
    20     7     8    2
    21     7    22    1
    22     8    23    1
    23     9    10    2
    24     9    24    1
    25    10    25    1
    26    10    26    1
