@<TRIPOS>MOLECULE
IMPHY016807
 49 49 0 0 0
SMALL
GASTEIGER

@<TRIPOS>ATOM
      1 O           2.8660   -5.5000    0.0000 O.3     1  UNL1       -0.4951
      2 C           4.5981    1.5000    0.0000 C.3     1  UNL1       -0.0531
      3 C           5.4641    2.0000    0.0000 C.3     1  UNL1       -0.0531
      4 C           4.5981    0.5000    0.0000 C.3     1  UNL1       -0.0530
      5 C           5.4641    3.0000    0.0000 C.3     1  UNL1       -0.0531
      6 C           3.7320    0.0000    0.0000 C.3     1  UNL1       -0.0528
      7 C           6.3301    3.5000    0.0000 C.3     1  UNL1       -0.0531
      8 C           3.7320   -1.0000    0.0000 C.3     1  UNL1       -0.0491
      9 C           6.3301    4.5000    0.0000 C.3     1  UNL1       -0.0533
     10 C           2.8660   -1.5000    0.0000 C.3     1  UNL1       -0.0277
     11 C           7.1962    5.0000    0.0000 C.3     1  UNL1       -0.0559
     12 C           2.8660   -2.5000    0.0000 C.ar    1  UNL1       -0.0471
     13 C           7.1962    6.0000    0.0000 C.3     1  UNL1       -0.0653
     14 C           3.7320   -3.0000    0.0000 C.ar    1  UNL1       -0.0551
     15 C           2.0000   -3.0000    0.0000 C.ar    1  UNL1       -0.0551
     16 C           3.7320   -4.0000    0.0000 C.ar    1  UNL1       -0.0197
     17 C           2.0000   -4.0000    0.0000 C.ar    1  UNL1       -0.0197
     18 C           2.8660   -4.5000    0.0000 C.ar    1  UNL1        0.1201
     19 C           2.0000   -6.0000    0.0000 C.3     1  UNL1        0.0788
     20 H           4.3860    2.0826    0.0000 H       1  UNL1        0.0265
     21 H           3.9875    1.3923    0.0000 H       1  UNL1        0.0265
     22 H           5.6762    1.4174    0.0000 H       1  UNL1        0.0265
     23 H           6.0747    2.1077    0.0000 H       1  UNL1        0.0265
     24 H           4.8101   -0.0826    0.0000 H       1  UNL1        0.0265
     25 H           5.2087    0.6077    0.0000 H       1  UNL1        0.0265
     26 H           5.2520    3.5826    0.0000 H       1  UNL1        0.0265
     27 H           4.8535    2.8923    0.0000 H       1  UNL1        0.0265
     28 H           3.5200    0.5826    0.0000 H       1  UNL1        0.0265
     29 H           3.1215   -0.1077    0.0000 H       1  UNL1        0.0265
     30 H           6.5422    2.9174    0.0000 H       1  UNL1        0.0265
     31 H           6.9407    3.6077    0.0000 H       1  UNL1        0.0265
     32 H           3.9441   -1.5826    0.0000 H       1  UNL1        0.0268
     33 H           4.3426   -0.8923    0.0000 H       1  UNL1        0.0268
     34 H           6.1181    5.0826    0.0000 H       1  UNL1        0.0265
     35 H           5.7196    4.3923    0.0000 H       1  UNL1        0.0265
     36 H           2.6540   -0.9174    0.0000 H       1  UNL1        0.0313
     37 H           2.2554   -1.6077    0.0000 H       1  UNL1        0.0313
     38 H           7.4082    4.4174    0.0000 H       1  UNL1        0.0263
     39 H           7.8067    5.1077    0.0000 H       1  UNL1        0.0263
     40 H           7.8162    6.0000    0.0000 H       1  UNL1        0.0230
     41 H           7.1962    6.6200    0.0000 H       1  UNL1        0.0230
     42 H           6.5762    6.0000    0.0000 H       1  UNL1        0.0230
     43 H           4.2690   -2.6900    0.0000 H       1  UNL1        0.0621
     44 H           1.4631   -2.6900    0.0000 H       1  UNL1        0.0621
     45 H           4.2690   -4.3100    0.0000 H       1  UNL1        0.0654
     46 H           1.4631   -4.3100    0.0000 H       1  UNL1        0.0654
     47 H           1.6900   -5.4631    0.0000 H       1  UNL1        0.0660
     48 H           1.4631   -6.3100    0.0000 H       1  UNL1        0.0660
     49 H           2.3100   -6.5369    0.0000 H       1  UNL1        0.0660
@<TRIPOS>BOND
     1     1    18    1
     2     1    19    1
     3     2     3    1
     4     2     4    1
     5     2    20    1
     6     2    21    1
     7     3     5    1
     8     3    22    1
     9     3    23    1
    10     4     6    1
    11     4    24    1
    12     4    25    1
    13     5     7    1
    14     5    26    1
    15     5    27    1
    16     6     8    1
    17     6    28    1
    18     6    29    1
    19     7     9    1
    20     7    30    1
    21     7    31    1
    22     8    10    1
    23     8    32    1
    24     8    33    1
    25     9    11    1
    26     9    34    1
    27     9    35    1
    28    10    12    1
    29    10    36    1
    30    10    37    1
    31    11    13    1
    32    11    38    1
    33    11    39    1
    34    12    14   ar
    35    12    15   ar
    36    13    40    1
    37    13    41    1
    38    13    42    1
    39    14    16   ar
    40    14    43    1
    41    15    17   ar
    42    15    44    1
    43    16    18   ar
    44    16    45    1
    45    17    18   ar
    46    17    46    1
    47    19    47    1
    48    19    48    1
    49    19    49    1
