@<TRIPOS>MOLECULE
IMPHY008240
 14 13 0 0 0
SMALL
GASTEIGER

@<TRIPOS>ATOM
      1 S           3.7320   -0.2500    0.0000 S.3     1  UNL1       -0.0893
      2 S           2.8660    0.2500    0.0000 S.3     1  UNL1       -0.0962
      3 C           4.5981    0.2500    0.0000 C.3     1  UNL1        0.0218
      4 C           5.4641   -0.2500    0.0000 C.2     1  UNL1       -0.0805
      5 C           2.0000   -0.2500    0.0000 C.3     1  UNL1       -0.0078
      6 C           6.3301    0.2500    0.0000 C.2     1  UNL1       -0.1018
      7 H           4.9966    0.7249    0.0000 H       1  UNL1        0.0427
      8 H           4.1996    0.7249    0.0000 H       1  UNL1        0.0427
      9 H           5.4641   -0.8700    0.0000 H       1  UNL1        0.0575
     10 H           1.6900    0.2869    0.0000 H       1  UNL1        0.0349
     11 H           1.4631   -0.5600    0.0000 H       1  UNL1        0.0349
     12 H           2.3100   -0.7869    0.0000 H       1  UNL1        0.0349
     13 H           6.8671   -0.0600    0.0000 H       1  UNL1        0.0532
     14 H           6.3301    0.8700    0.0000 H       1  UNL1        0.0532
@<TRIPOS>BOND
     1     1     2    1
     2     1     3    1
     3     2     5    1
     4     3     4    1
     5     3     7    1
     6     3     8    1
     7     4     6    2
     8     4     9    1
     9     5    10    1
    10     5    11    1
    11     5    12    1
    12     6    13    1
    13     6    14    1
