@<TRIPOS>MOLECULE
IMPHY006887
 76 80 0 0 0
SMALL
GASTEIGER

@<TRIPOS>ATOM
      1 CL          4.9580   -4.0544    0.0000 Cl      1  UNL1       -0.1187
      2 O           6.7021   -1.9852    0.0000 O.3     1  UNL1       -0.3877
      3 O           7.3410    1.2711    0.0000 O.3     1  UNL1       -0.3850
      4 O           4.0443   -3.5336    0.0000 O.3     1  UNL1       -0.3832
      5 O           9.0448    0.0959    0.0000 O.3     1  UNL1       -0.3823
      6 O           2.6200   -3.9513    0.0000 O.3     1  UNL1       -0.3848
      7 O           9.1656    2.4870    0.0000 O.3     1  UNL1       -0.4548
      8 O           3.1525    0.0719    0.0000 O.2     1  UNL1       -0.2920
      9 O           9.8728    4.0681    0.0000 O.2     1  UNL1       -0.2453
     10 C           6.7021    0.0148    0.0000 C.3     1  UNL1        0.0285
     11 C           6.7021   -0.9852    0.0000 C.3     1  UNL1        0.0774
     12 C           5.8361   -1.4852    0.0000 C.3     1  UNL1       -0.0063
     13 C           4.9701   -0.9852    0.0000 C.3     1  UNL1       -0.0203
     14 C           7.6483    0.3196    0.0000 C.3     1  UNL1        0.1058
     15 C           5.8361    0.5148    0.0000 C.3     1  UNL1       -0.0420
     16 C           4.0601   -1.4920    0.0000 C.3     1  UNL1        0.0660
     17 C           7.6483   -1.2899    0.0000 C.3     1  UNL1       -0.0204
     18 C           4.9701    0.0148    0.0000 C.3     1  UNL1       -0.0482
     19 C           8.2320   -0.4852    0.0000 C.3     1  UNL1       -0.0179
     20 C           5.8522   -2.5267    0.0000 C.3     1  UNL1       -0.0281
     21 C           4.0520   -2.5336    0.0000 C.3     1  UNL1        0.1239
     22 C           8.4584    0.9059    0.0000 C.3     1  UNL1        0.1293
     23 C           4.9541   -3.0544    0.0000 C.3     1  UNL1        0.0667
     24 C           6.3601    0.9545    0.0000 C.3     1  UNL1       -0.0542
     25 C           4.0678   -0.4921    0.0000 C.3     1  UNL1       -0.0494
     26 C           3.1166   -3.0833    0.0000 C.3     1  UNL1        0.1047
     27 C           3.1332   -0.9279    0.0000 C.2     1  UNL1        0.1649
     28 C           9.2684    1.4923    0.0000 C.3     1  UNL1        0.1380
     29 C           7.8720    1.7160    0.0000 C.3     1  UNL1       -0.0298
     30 C           2.1770   -2.5408    0.0000 C.2     1  UNL1       -0.0498
     31 C           2.1854   -1.4559    0.0000 C.2     1  UNL1       -0.0200
     32 C          10.1813    1.0840    0.0000 C.3     1  UNL1        0.0089
     33 C          10.9913    1.6704    0.0000 C.2     1  UNL1       -0.0594
     34 C           9.9756    3.0734    0.0000 C.2     1  UNL1        0.3352
     35 C          10.8885    2.6651    0.0000 C.2     1  UNL1        0.0326
     36 C          11.9041    1.2621    0.0000 C.3     1  UNL1       -0.0429
     37 C          11.6985    3.2515    0.0000 C.3     1  UNL1       -0.0330
     38 H           6.5755   -1.9045    0.0000 H       1  UNL1        0.0332
     39 H           5.7062   -0.5602    0.0000 H       1  UNL1        0.0315
     40 H           6.2346    0.9898    0.0000 H       1  UNL1        0.0272
     41 H           5.4376    0.9898    0.0000 H       1  UNL1        0.0272
     42 H           7.3973   -1.8568    0.0000 H       1  UNL1        0.0294
     43 H           8.1857   -1.5991    0.0000 H       1  UNL1        0.0294
     44 H           4.7580    0.5974    0.0000 H       1  UNL1        0.0269
     45 H           4.3595   -0.0928    0.0000 H       1  UNL1        0.0269
     46 H           8.6928   -0.8999    0.0000 H       1  UNL1        0.0295
     47 H           8.6928   -0.0705    0.0000 H       1  UNL1        0.0295
     48 H           6.0702   -3.1071    0.0000 H       1  UNL1        0.0284
     49 H           6.4613   -2.4112    0.0000 H       1  UNL1        0.0284
     50 H           5.4928   -3.3613    0.0000 H       1  UNL1        0.0495
     51 H           6.9427    1.1666    0.0000 H       1  UNL1        0.0237
     52 H           6.1480    1.5371    0.0000 H       1  UNL1        0.0237
     53 H           5.7775    0.7425    0.0000 H       1  UNL1        0.0237
     54 H           7.2391   -2.2952    0.0000 H       1  UNL1        0.2102
     55 H           4.6878   -0.4968    0.0000 H       1  UNL1        0.0240
     56 H           4.0726    0.1279    0.0000 H       1  UNL1        0.0240
     57 H           3.4478   -0.4873    0.0000 H       1  UNL1        0.0240
     58 H           3.5576   -3.5192    0.0000 H       1  UNL1        0.0667
     59 H           8.4925    1.8394    0.0000 H       1  UNL1        0.0767
     60 H           6.8158    1.6006    0.0000 H       1  UNL1        0.2103
     61 H           8.3742    2.0795    0.0000 H       1  UNL1        0.0259
     62 H           7.5084    2.2182    0.0000 H       1  UNL1        0.0259
     63 H           7.3698    1.3524    0.0000 H       1  UNL1        0.0259
     64 H           3.7302   -4.0681    0.0000 H       1  UNL1        0.2104
     65 H           1.6389   -2.8488    0.0000 H       1  UNL1        0.0599
     66 H           1.6520   -1.1397    0.0000 H       1  UNL1        0.0650
     67 H           9.6615    0.1596    0.0000 H       1  UNL1        0.2104
     68 H           9.8337    0.5706    0.0000 H       1  UNL1        0.0347
     69 H          10.6265    0.6525    0.0000 H       1  UNL1        0.0347
     70 H           2.0000   -3.9537    0.0000 H       1  UNL1        0.2103
     71 H          11.6510    0.6961    0.0000 H       1  UNL1        0.0275
     72 H          12.4701    1.0089    0.0000 H       1  UNL1        0.0275
     73 H          12.1573    1.8280    0.0000 H       1  UNL1        0.0275
     74 H          12.0621    2.7492    0.0000 H       1  UNL1        0.0280
     75 H          12.2007    3.6150    0.0000 H       1  UNL1        0.0280
     76 H          11.3350    3.7537    0.0000 H       1  UNL1        0.0280
@<TRIPOS>BOND
     1    23     1    1
     2    11     2    1
     3     2    54    1
     4    14     3    1
     5     3    60    1
     6    21     4    1
     7     4    64    1
     8    22     5    1
     9     5    67    1
    10    26     6    1
    11     6    70    1
    12     7    28    1
    13     7    34    1
    14     8    27    2
    15     9    34    2
    16    10    11    1
    17    10    14    1
    18    10    15    1
    19    10    24    1
    20    11    12    1
    21    11    17    1
    22    12    13    1
    23    12    20    1
    24    12    38    1
    25    13    16    1
    26    13    18    1
    27    13    39    1
    28    14    19    1
    29    14    22    1
    30    15    18    1
    31    15    40    1
    32    15    41    1
    33    16    21    1
    34    16    25    1
    35    16    27    1
    36    17    19    1
    37    17    42    1
    38    17    43    1
    39    18    44    1
    40    18    45    1
    41    19    46    1
    42    19    47    1
    43    20    23    1
    44    20    48    1
    45    20    49    1
    46    21    23    1
    47    21    26    1
    48    22    28    1
    49    22    29    1
    50    23    50    1
    51    24    51    1
    52    24    52    1
    53    24    53    1
    54    25    55    1
    55    25    56    1
    56    25    57    1
    57    26    30    1
    58    26    58    1
    59    27    31    1
    60    28    32    1
    61    28    59    1
    62    29    61    1
    63    29    62    1
    64    29    63    1
    65    30    31    2
    66    30    65    1
    67    31    66    1
    68    32    33    1
    69    32    68    1
    70    32    69    1
    71    33    35    2
    72    33    36    1
    73    34    35    1
    74    35    37    1
    75    36    71    1
    76    36    72    1
    77    36    73    1
    78    37    74    1
    79    37    75    1
    80    37    76    1
