@<TRIPOS>MOLECULE
IMPHY010060
 46 49 0 0 0
SMALL
GASTEIGER

@<TRIPOS>ATOM
      1 O           6.0746   -2.7176    0.0000 O.3     1  UNL1       -0.4644
      2 O           4.7854   -1.5609    0.0000 O.2     1  UNL1       -0.2449
      3 N           5.5321    2.9273    0.0000 N.pl3   1  UNL1       -0.2195
      4 N           4.6660    1.4273    0.0000 N.2     1  UNL1       -0.0456
      5 N           7.7209   -2.1796    0.0000 N.pl3   1  UNL1       -0.3463
      6 C           6.4783    1.6225    0.0000 C.3     1  UNL1        0.0907
      7 C           7.0619    2.4273    0.0000 C.3     1  UNL1        0.0011
      8 C           6.4783    3.2320    0.0000 C.3     1  UNL1        0.0817
      9 C           5.5321    1.9273    0.0000 C.2     1  UNL1        0.2973
     10 C           4.6660    3.4273    0.0000 C.3     1  UNL1        0.1096
     11 C           6.7889    0.6720    0.0000 C.ar    1  UNL1       -0.0318
     12 C           3.8000    2.9273    0.0000 C.ar    1  UNL1        0.0425
     13 C           3.8000    1.9273    0.0000 C.ar    1  UNL1        0.1828
     14 C           6.1211   -0.0723    0.0000 C.ar    1  UNL1       -0.0420
     15 C           7.7674    0.4658    0.0000 C.ar    1  UNL1       -0.0560
     16 C           2.9061    3.4619    0.0000 C.ar    1  UNL1       -0.0509
     17 C           6.4318   -1.0228    0.0000 C.ar    1  UNL1        0.0800
     18 C           2.9061    1.3926    0.0000 C.ar    1  UNL1       -0.0105
     19 C           8.0781   -0.4847    0.0000 C.ar    1  UNL1       -0.0398
     20 C           7.4103   -1.2290    0.0000 C.ar    1  UNL1        0.0410
     21 C           2.0000    2.9481    0.0000 C.ar    1  UNL1       -0.0611
     22 C           2.0000    1.9064    0.0000 C.ar    1  UNL1       -0.0576
     23 C           5.7639   -1.7671    0.0000 C.2     1  UNL1        0.3407
     24 C           8.6994   -2.3858    0.0000 C.3     1  UNL1       -0.0024
     25 C           5.4067   -3.4619    0.0000 C.3     1  UNL1        0.0820
     26 H           7.0908    1.5263    0.0000 H       1  UNL1        0.0473
     27 H           7.5228    2.0125    0.0000 H       1  UNL1        0.0313
     28 H           7.5228    2.8420    0.0000 H       1  UNL1        0.0313
     29 H           7.0157    3.5412    0.0000 H       1  UNL1        0.0726
     30 H           6.2272    3.7989    0.0000 H       1  UNL1        0.0726
     31 H           5.0646    3.9022    0.0000 H       1  UNL1        0.0779
     32 H           4.2675    3.9022    0.0000 H       1  UNL1        0.0779
     33 H           5.5144    0.0556    0.0000 H       1  UNL1        0.0629
     34 H           8.1815    0.9273    0.0000 H       1  UNL1        0.0621
     35 H           2.9132    4.0819    0.0000 H       1  UNL1        0.0623
     36 H           2.9132    0.7726    0.0000 H       1  UNL1        0.0661
     37 H           8.6848   -0.6126    0.0000 H       1  UNL1        0.0636
     38 H           1.4643    3.2602    0.0000 H       1  UNL1        0.0618
     39 H           1.4643    1.5944    0.0000 H       1  UNL1        0.0619
     40 H           7.3069   -2.6410    0.0000 H       1  UNL1        0.1458
     41 H           8.5716   -2.9924    0.0000 H       1  UNL1        0.0425
     42 H           9.3061   -2.5136    0.0000 H       1  UNL1        0.0425
     43 H           8.8273   -1.7791    0.0000 H       1  UNL1        0.0425
     44 H           4.9453   -3.0479    0.0000 H       1  UNL1        0.0661
     45 H           4.9927   -3.9234    0.0000 H       1  UNL1        0.0661
     46 H           5.8682   -3.8760    0.0000 H       1  UNL1        0.0661
@<TRIPOS>BOND
     1     1    23    1
     2     1    25    1
     3     2    23    2
     4     3     8    1
     5     3     9    1
     6     3    10    1
     7     4     9    2
     8     4    13    1
     9     5    20    1
    10     5    24    1
    11     5    40    1
    12     6     7    1
    13     6     9    1
    14     6    11    1
    15     6    26    1
    16     7     8    1
    17     7    27    1
    18     7    28    1
    19     8    29    1
    20     8    30    1
    21    10    12    1
    22    10    31    1
    23    10    32    1
    24    11    14   ar
    25    11    15   ar
    26    12    13   ar
    27    12    16   ar
    28    13    18   ar
    29    14    17   ar
    30    14    33    1
    31    15    19   ar
    32    15    34    1
    33    16    21   ar
    34    16    35    1
    35    17    20   ar
    36    17    23    1
    37    18    22   ar
    38    18    36    1
    39    19    20   ar
    40    19    37    1
    41    21    22   ar
    42    21    38    1
    43    22    39    1
    44    24    41    1
    45    24    42    1
    46    24    43    1
    47    25    44    1
    48    25    45    1
    49    25    46    1
