@<TRIPOS>MOLECULE
IMPHY009320
 17 17 0 0 0
SMALL
GASTEIGER

@<TRIPOS>ATOM
      1 O           2.5369   -0.0600    0.0000 O.3     1  UNL1       -0.5064
      2 O           5.1350    1.4400    0.0000 O.3     1  UNL1       -0.3903
      3 C           4.2690   -0.0600    0.0000 C.ar    1  UNL1        0.0192
      4 C           3.4030   -0.5600    0.0000 C.ar    1  UNL1        0.1222
      5 C           4.2690    0.9400    0.0000 C.3     1  UNL1        0.0726
      6 C           5.1350   -0.5600    0.0000 C.ar    1  UNL1       -0.0529
      7 C           3.4030   -1.5600    0.0000 C.ar    1  UNL1       -0.0198
      8 C           5.1350   -1.5600    0.0000 C.ar    1  UNL1       -0.0612
      9 C           4.2690   -2.0600    0.0000 C.ar    1  UNL1       -0.0583
     10 H           4.0569    1.5226    0.0000 H       1  UNL1        0.0608
     11 H           3.6584    0.8323    0.0000 H       1  UNL1        0.0608
     12 H           5.6720   -0.2500    0.0000 H       1  UNL1        0.0622
     13 H           2.8660   -1.8700    0.0000 H       1  UNL1        0.0654
     14 H           5.6720   -1.8700    0.0000 H       1  UNL1        0.0618
     15 H           4.2690   -2.6800    0.0000 H       1  UNL1        0.0619
     16 H           2.0000   -0.3700    0.0000 H       1  UNL1        0.2921
     17 H           5.1350    2.0600    0.0000 H       1  UNL1        0.2098
@<TRIPOS>BOND
     1     1     4    1
     2     1    16    1
     3     2     5    1
     4     2    17    1
     5     3     4   ar
     6     3     5    1
     7     3     6   ar
     8     4     7   ar
     9     5    10    1
    10     5    11    1
    11     6     8   ar
    12     6    12    1
    13     7     9   ar
    14     7    13    1
    15     8     9   ar
    16     8    14    1
    17     9    15    1
