@<TRIPOS>MOLECULE
IMPHY001978
 83 86 0 0 0
SMALL
GASTEIGER

@<TRIPOS>ATOM
      1 O           6.1847   -4.1911    0.0000 O.2     1  UNL1       -0.2971
      2 O           2.5357   -3.1742    0.0000 O.3     1  UNL1       -0.3918
      3 O          10.8321    0.5953    0.0000 O.3     1  UNL1       -0.3890
      4 O           9.8070    3.0344    0.0000 O.3     1  UNL1       -0.3889
      5 C           7.9288   -0.1219    0.0000 C.3     1  UNL1       -0.0258
      6 C           7.9288   -1.1219    0.0000 C.3     1  UNL1       -0.0319
      7 C           7.0628   -1.6219    0.0000 C.3     1  UNL1       -0.0277
      8 C           6.1968   -1.1219    0.0000 C.3     1  UNL1       -0.0315
      9 C           5.2868   -1.6287    0.0000 C.3     1  UNL1       -0.0193
     10 C           8.8750    0.1828    0.0000 C.3     1  UNL1       -0.0304
     11 C           7.0628    0.3781    0.0000 C.3     1  UNL1       -0.0468
     12 C           6.1968   -0.1219    0.0000 C.3     1  UNL1       -0.0489
     13 C           8.8750   -1.4266    0.0000 C.3     1  UNL1       -0.0492
     14 C           9.4586   -0.6219    0.0000 C.3     1  UNL1       -0.0491
     15 C           5.2787   -2.6703    0.0000 C.3     1  UNL1        0.0255
     16 C           7.0789   -2.6634    0.0000 C.3     1  UNL1        0.0095
     17 C           9.1857    1.1334    0.0000 C.3     1  UNL1       -0.0120
     18 C           4.3599   -1.0647    0.0000 C.3     1  UNL1       -0.0444
     19 C           7.9288    0.8781    0.0000 C.3     1  UNL1       -0.0590
     20 C           6.1808   -3.1912    0.0000 C.2     1  UNL1        0.1373
     21 C           4.3433   -3.2201    0.0000 C.3     1  UNL1       -0.0168
     22 C           5.2945   -0.6288    0.0000 C.3     1  UNL1       -0.0587
     23 C           3.4120   -1.5926    0.0000 C.3     1  UNL1       -0.0263
     24 C           3.4037   -2.6776    0.0000 C.3     1  UNL1        0.0559
     25 C          10.1642    1.3396    0.0000 C.3     1  UNL1        0.0841
     26 C           8.5179    1.8777    0.0000 C.3     1  UNL1       -0.0597
     27 C          10.4749    2.2901    0.0000 C.3     1  UNL1        0.0843
     28 C          11.4534    2.4963    0.0000 C.3     1  UNL1       -0.0104
     29 C          11.7640    3.4468    0.0000 C.3     1  UNL1       -0.0415
     30 C          12.1212    1.7520    0.0000 C.3     1  UNL1       -0.0504
     31 C          12.7425    3.6531    0.0000 C.3     1  UNL1       -0.0623
     32 C          11.0962    4.1911    0.0000 C.3     1  UNL1       -0.0623
     33 C          13.0997    1.9582    0.0000 C.3     1  UNL1       -0.0649
     34 H           8.0188   -1.9671    0.0000 H       1  UNL1        0.0309
     35 H           7.8022   -2.0412    0.0000 H       1  UNL1        0.0310
     36 H           6.9329   -0.6969    0.0000 H       1  UNL1        0.0309
     37 H           9.7148    0.3147    0.0000 H       1  UNL1        0.0310
     38 H           7.4613    0.8531    0.0000 H       1  UNL1        0.0271
     39 H           6.6643    0.8531    0.0000 H       1  UNL1        0.0271
     40 H           5.9847    0.4607    0.0000 H       1  UNL1        0.0268
     41 H           5.5862   -0.2296    0.0000 H       1  UNL1        0.0268
     42 H           8.6240   -1.9935    0.0000 H       1  UNL1        0.0268
     43 H           9.4124   -1.7358    0.0000 H       1  UNL1        0.0268
     44 H           9.9195   -1.0366    0.0000 H       1  UNL1        0.0268
     45 H           9.9195   -0.2072    0.0000 H       1  UNL1        0.0268
     46 H           5.2820   -3.5203    0.0000 H       1  UNL1        0.0384
     47 H           7.2969   -3.2438    0.0000 H       1  UNL1        0.0345
     48 H           7.6880   -2.5479    0.0000 H       1  UNL1        0.0345
     49 H           9.3783    1.7227    0.0000 H       1  UNL1        0.0327
     50 H           4.7681   -0.5980    0.0000 H       1  UNL1        0.0272
     51 H           3.9700   -0.5826    0.0000 H       1  UNL1        0.0272
     52 H           8.5488    0.8781    0.0000 H       1  UNL1        0.0235
     53 H           7.9288    1.4981    0.0000 H       1  UNL1        0.0235
     54 H           7.3088    0.8781    0.0000 H       1  UNL1        0.0235
     55 H           3.9460   -3.6960    0.0000 H       1  UNL1        0.0297
     56 H           4.7443   -3.6930    0.0000 H       1  UNL1        0.0297
     57 H           5.9145   -0.6335    0.0000 H       1  UNL1        0.0235
     58 H           5.2993   -0.0088    0.0000 H       1  UNL1        0.0235
     59 H           4.6745   -0.6240    0.0000 H       1  UNL1        0.0235
     60 H           3.2075   -1.0073    0.0000 H       1  UNL1        0.0290
     61 H           2.8004   -1.6940    0.0000 H       1  UNL1        0.0290
     62 H           2.8686   -2.3645    0.0000 H       1  UNL1        0.0593
     63 H           9.9716    0.7503    0.0000 H       1  UNL1        0.0622
     64 H           8.9793    2.2917    0.0000 H       1  UNL1        0.0233
     65 H           8.1038    2.3391    0.0000 H       1  UNL1        0.0233
     66 H           8.0564    1.4636    0.0000 H       1  UNL1        0.0233
     67 H          10.6675    2.8794    0.0000 H       1  UNL1        0.0622
     68 H           2.0000   -2.8622    0.0000 H       1  UNL1        0.2098
     69 H          12.0601    2.6242    0.0000 H       1  UNL1        0.0329
     70 H          11.4387    0.7231    0.0000 H       1  UNL1        0.2099
     71 H          11.9567    4.0362    0.0000 H       1  UNL1        0.0299
     72 H           9.9996    3.6237    0.0000 H       1  UNL1        0.2099
     73 H          11.5949    1.4244    0.0000 H       1  UNL1        0.0266
     74 H          12.3525    1.1768    0.0000 H       1  UNL1        0.0266
     75 H          11.5577    4.6052    0.0000 H       1  UNL1        0.0232
     76 H          10.6821    4.6526    0.0000 H       1  UNL1        0.0232
     77 H          10.6347    3.7771    0.0000 H       1  UNL1        0.0232
     78 H          12.8704    3.0464    0.0000 H       1  UNL1        0.0232
     79 H          13.3492    3.7809    0.0000 H       1  UNL1        0.0232
     80 H          12.6147    4.2597    0.0000 H       1  UNL1        0.0232
     81 H          13.2276    1.3516    0.0000 H       1  UNL1        0.0230
     82 H          13.7064    2.0861    0.0000 H       1  UNL1        0.0230
     83 H          12.9719    2.5649    0.0000 H       1  UNL1        0.0230
@<TRIPOS>BOND
     1     1    20    2
     2    24     2    1
     3     2    68    1
     4    25     3    1
     5     3    70    1
     6    27     4    1
     7     4    72    1
     8     5     6    1
     9     5    10    1
    10     5    11    1
    11     5    19    1
    12     6     7    1
    13     6    13    1
    14     6    34    1
    15     7     8    1
    16     7    16    1
    17     7    35    1
    18     8     9    1
    19     8    12    1
    20     8    36    1
    21     9    15    1
    22     9    18    1
    23     9    22    1
    24    10    14    1
    25    10    17    1
    26    10    37    1
    27    11    12    1
    28    11    38    1
    29    11    39    1
    30    12    40    1
    31    12    41    1
    32    13    14    1
    33    13    42    1
    34    13    43    1
    35    14    44    1
    36    14    45    1
    37    15    20    1
    38    15    21    1
    39    15    46    1
    40    16    20    1
    41    16    47    1
    42    16    48    1
    43    17    25    1
    44    17    26    1
    45    17    49    1
    46    18    23    1
    47    18    50    1
    48    18    51    1
    49    19    52    1
    50    19    53    1
    51    19    54    1
    52    21    24    1
    53    21    55    1
    54    21    56    1
    55    22    57    1
    56    22    58    1
    57    22    59    1
    58    23    24    1
    59    23    60    1
    60    23    61    1
    61    24    62    1
    62    25    27    1
    63    25    63    1
    64    26    64    1
    65    26    65    1
    66    26    66    1
    67    27    28    1
    68    27    67    1
    69    28    29    1
    70    28    30    1
    71    28    69    1
    72    29    31    1
    73    29    32    1
    74    29    71    1
    75    30    33    1
    76    30    73    1
    77    30    74    1
    78    31    78    1
    79    31    79    1
    80    31    80    1
    81    32    75    1
    82    32    76    1
    83    32    77    1
    84    33    81    1
    85    33    82    1
    86    33    83    1
