@<TRIPOS>MOLECULE
IMPHY002743
 20 20 0 0 0
SMALL
GASTEIGER

@<TRIPOS>ATOM
      1 O           3.7320   -2.0000    0.0000 O.2     1  UNL1       -0.4912
      2 O           3.7320    2.0000    0.0000 O.2     1  UNL1       -0.4912
      3 O           2.0000    1.0000    0.0000 O.2     1  UNL1       -0.2839
      4 O           5.4641   -1.0000    0.0000 O.2     1  UNL1       -0.2839
      5 C           3.7320    1.0000    0.0000 C.2     1  UNL1        0.1704
      6 C           3.7320   -1.0000    0.0000 C.2     1  UNL1        0.1704
      7 C           2.8660    0.5000    0.0000 C.2     1  UNL1        0.2239
      8 C           4.5981   -0.5000    0.0000 C.2     1  UNL1        0.2239
      9 C           2.8660   -0.5000    0.0000 C.2     1  UNL1        0.0343
     10 C           4.5981    0.5000    0.0000 C.2     1  UNL1        0.0343
     11 C           4.5981    2.5000    0.0000 C.3     1  UNL1        0.0790
     12 C           2.8660   -2.5000    0.0000 C.3     1  UNL1        0.0790
     13 H           2.3291   -0.8100    0.0000 H       1  UNL1        0.0695
     14 H           5.1350    0.8100    0.0000 H       1  UNL1        0.0695
     15 H           2.5560   -1.9631    0.0000 H       1  UNL1        0.0660
     16 H           2.3291   -2.8100    0.0000 H       1  UNL1        0.0660
     17 H           3.1760   -3.0369    0.0000 H       1  UNL1        0.0660
     18 H           4.9081    1.9631    0.0000 H       1  UNL1        0.0660
     19 H           5.1350    2.8100    0.0000 H       1  UNL1        0.0660
     20 H           4.2881    3.0369    0.0000 H       1  UNL1        0.0660
@<TRIPOS>BOND
     1     1     6    1
     2     1    12    1
     3     2     5    1
     4     2    11    1
     5     3     7    2
     6     4     8    2
     7     5     7    1
     8     5    10    2
     9     6     8    1
    10     6     9    2
    11     7     9    1
    12     8    10    1
    13     9    13    1
    14    10    14    1
    15    11    18    1
    16    11    19    1
    17    11    20    1
    18    12    15    1
    19    12    16    1
    20    12    17    1
