@<TRIPOS>MOLECULE
IMPHY009534
 61 63 0 0 0
SMALL
GASTEIGER

@<TRIPOS>ATOM
      1 O           6.0010   -3.2500    0.0000 O.3     1  UNL1       -0.3378
      2 O           4.2690   -1.2500    0.0000 O.3     1  UNL1       -0.3405
      3 O           6.8671   -1.7500    0.0000 O.3     1  UNL1       -0.3431
      4 O           6.0010   -1.2500    0.0000 O.3     1  UNL1       -0.3484
      5 O           4.2690   -4.2500    0.0000 O.3     1  UNL1       -0.3864
      6 O           2.5369   -3.2500    0.0000 O.3     1  UNL1       -0.3865
      7 O           7.7331   -4.2500    0.0000 O.3     1  UNL1       -0.3841
      8 O           9.4651   -3.2500    0.0000 O.3     1  UNL1       -0.3864
      9 O           9.4651   -1.2500    0.0000 O.3     1  UNL1       -0.3866
     10 O           2.5369   -0.2500    0.0000 O.3     1  UNL1       -0.3924
     11 O           5.1350    4.2500    0.0000 O.3     1  UNL1       -0.5068
     12 C           5.1350   -2.7500    0.0000 C.3     1  UNL1        0.1406
     13 C           4.2690   -3.2500    0.0000 C.3     1  UNL1        0.1144
     14 C           3.4030   -2.7500    0.0000 C.3     1  UNL1        0.1119
     15 C           6.8671   -2.7500    0.0000 C.3     1  UNL1        0.1884
     16 C           5.1350   -1.7500    0.0000 C.3     1  UNL1        0.1883
     17 C           7.7331   -3.2500    0.0000 C.3     1  UNL1        0.1341
     18 C           3.4030   -1.7500    0.0000 C.3     1  UNL1        0.1130
     19 C           8.5991   -2.7500    0.0000 C.3     1  UNL1        0.1140
     20 C           8.5991   -1.7500    0.0000 C.3     1  UNL1        0.1095
     21 C           7.7331   -1.2500    0.0000 C.3     1  UNL1        0.0873
     22 C           2.5369   -1.2500    0.0000 C.3     1  UNL1        0.0730
     23 C           7.7331   -0.2500    0.0000 C.3     1  UNL1       -0.0361
     24 C           6.0010   -0.2500    0.0000 C.3     1  UNL1        0.0547
     25 C           5.1350    0.2500    0.0000 C.3     1  UNL1       -0.0040
     26 C           5.1350    1.2500    0.0000 C.ar    1  UNL1       -0.0450
     27 C           4.2690    1.7500    0.0000 C.ar    1  UNL1       -0.0551
     28 C           6.0010    1.7500    0.0000 C.ar    1  UNL1       -0.0551
     29 C           4.2690    2.7500    0.0000 C.ar    1  UNL1       -0.0199
     30 C           6.0010    2.7500    0.0000 C.ar    1  UNL1       -0.0199
     31 C           5.1350    3.2500    0.0000 C.ar    1  UNL1        0.1169
     32 H           5.1350   -3.3700    0.0000 H       1  UNL1        0.0675
     33 H           3.7320   -3.5600    0.0000 H       1  UNL1        0.0648
     34 H           3.4030   -3.3700    0.0000 H       1  UNL1        0.0647
     35 H           6.8671   -3.3700    0.0000 H       1  UNL1        0.0938
     36 H           5.1350   -1.1300    0.0000 H       1  UNL1        0.0937
     37 H           8.2700   -3.5600    0.0000 H       1  UNL1        0.0671
     38 H           3.4030   -1.1300    0.0000 H       1  UNL1        0.0647
     39 H           9.1360   -2.4400    0.0000 H       1  UNL1        0.0648
     40 H           8.5991   -1.1300    0.0000 H       1  UNL1        0.0646
     41 H           7.1962   -0.9400    0.0000 H       1  UNL1        0.0621
     42 H           1.9264   -1.1423    0.0000 H       1  UNL1        0.0584
     43 H           2.3249   -1.8326    0.0000 H       1  UNL1        0.0584
     44 H           8.3531   -0.2500    0.0000 H       1  UNL1        0.0255
     45 H           7.7331    0.3700    0.0000 H       1  UNL1        0.0255
     46 H           7.1131   -0.2500    0.0000 H       1  UNL1        0.0255
     47 H           3.7320   -4.5600    0.0000 H       1  UNL1        0.2100
     48 H           2.0000   -2.9400    0.0000 H       1  UNL1        0.2100
     49 H           8.2700   -4.5600    0.0000 H       1  UNL1        0.2101
     50 H          10.0021   -2.9400    0.0000 H       1  UNL1        0.2100
     51 H           9.4651   -0.6300    0.0000 H       1  UNL1        0.2100
     52 H           6.6116   -0.3577    0.0000 H       1  UNL1        0.0564
     53 H           6.2131    0.3326    0.0000 H       1  UNL1        0.0564
     54 H           4.5244    0.3577    0.0000 H       1  UNL1        0.0335
     55 H           4.9230   -0.3326    0.0000 H       1  UNL1        0.0335
     56 H           2.0000    0.0600    0.0000 H       1  UNL1        0.2095
     57 H           3.7320    1.4400    0.0000 H       1  UNL1        0.0621
     58 H           6.5380    1.4400    0.0000 H       1  UNL1        0.0621
     59 H           3.7320    3.0600    0.0000 H       1  UNL1        0.0654
     60 H           6.5380    3.0600    0.0000 H       1  UNL1        0.0654
     61 H           4.5981    4.5600    0.0000 H       1  UNL1        0.2921
@<TRIPOS>BOND
     1    12     1    1
     2    15     1    1
     3     2    16    1
     4     2    18    1
     5     3    15    1
     6     3    21    1
     7    16     4    1
     8     4    24    1
     9    13     5    1
    10     5    47    1
    11    14     6    1
    12     6    48    1
    13    17     7    1
    14     7    49    1
    15    19     8    1
    16     8    50    1
    17    20     9    1
    18     9    51    1
    19    10    22    1
    20    10    56    1
    21    11    31    1
    22    11    61    1
    23    12    13    1
    24    12    16    1
    25    12    32    1
    26    13    14    1
    27    13    33    1
    28    14    18    1
    29    14    34    1
    30    15    17    1
    31    15    35    1
    32    16    36    1
    33    17    19    1
    34    17    37    1
    35    18    22    1
    36    18    38    1
    37    19    20    1
    38    19    39    1
    39    20    21    1
    40    20    40    1
    41    21    23    1
    42    21    41    1
    43    22    42    1
    44    22    43    1
    45    23    44    1
    46    23    45    1
    47    23    46    1
    48    24    25    1
    49    24    52    1
    50    24    53    1
    51    25    26    1
    52    25    54    1
    53    25    55    1
    54    26    27   ar
    55    26    28   ar
    56    27    29   ar
    57    27    57    1
    58    28    30   ar
    59    28    58    1
    60    29    31   ar
    61    29    59    1
    62    30    31   ar
    63    30    60    1
