@<TRIPOS>MOLECULE
IMPHY014614
 44 46 0 0 0
SMALL
GASTEIGER

@<TRIPOS>ATOM
      1 O           8.3148   -0.9541    0.0000 O.3     1  UNL1       -0.3685
      2 O           3.9744    1.3285    0.0000 O.3     1  UNL1       -0.5031
      3 O           2.6457   -0.2304    0.0000 O.3     1  UNL1       -0.4912
      4 C           7.0432   -0.1594    0.0000 C.3     1  UNL1        0.0971
      5 C           7.3020    0.8065    0.0000 C.3     1  UNL1       -0.0098
      6 C           6.0654    1.6552    0.0000 C.3     1  UNL1       -0.0188
      7 C           6.9314    2.1552    0.0000 C.3     1  UNL1       -0.0431
      8 C           5.6705   -0.7514    0.0000 C.ar    1  UNL1       -0.0082
      9 C           6.7844   -1.1253    0.0000 C.3     1  UNL1       -0.0133
     10 C           5.3284    0.1883    0.0000 C.ar    1  UNL1        0.0068
     11 C           8.7336    0.6088    0.0000 C.3     1  UNL1       -0.0225
     12 C           9.0920   -0.3247    0.0000 C.3     1  UNL1        0.0494
     13 C           5.0133   -1.5596    0.0000 C.ar    1  UNL1       -0.0490
     14 C           4.3056    0.3849    0.0000 C.ar    1  UNL1        0.1626
     15 C           7.4914   -1.8324    0.0000 C.3     1  UNL1       -0.0597
     16 C           5.8184   -1.3842    0.0000 C.3     1  UNL1       -0.0597
     17 C           3.9861   -1.3866    0.0000 C.ar    1  UNL1       -0.0048
     18 C           3.6299   -0.4078    0.0000 C.ar    1  UNL1        0.1644
     19 C           3.3463   -2.1552    0.0000 C.3     1  UNL1       -0.0361
     20 C           2.0000   -0.9939    0.0000 C.3     1  UNL1        0.0790
     21 H           7.7108    1.2727    0.0000 H       1  UNL1        0.0351
     22 H           5.7606    2.1951    0.0000 H       1  UNL1        0.0297
     23 H           5.5225    1.3557    0.0000 H       1  UNL1        0.0297
     24 H           7.5131    2.3697    0.0000 H       1  UNL1        0.0272
     25 H           6.6682    2.7165    0.0000 H       1  UNL1        0.0272
     26 H           7.3832   -0.9649    0.0000 H       1  UNL1        0.0327
     27 H           9.3414    0.7312    0.0000 H       1  UNL1        0.0293
     28 H           8.7146    1.2286    0.0000 H       1  UNL1        0.0293
     29 H           9.4297   -0.8447    0.0000 H       1  UNL1        0.0560
     30 H           9.6444   -0.0433    0.0000 H       1  UNL1        0.0560
     31 H           5.2321   -2.1397    0.0000 H       1  UNL1        0.0625
     32 H           7.0530   -2.2708    0.0000 H       1  UNL1        0.0233
     33 H           7.9299   -2.2708    0.0000 H       1  UNL1        0.0233
     34 H           7.9299   -1.3940    0.0000 H       1  UNL1        0.0233
     35 H           5.6579   -0.7853    0.0000 H       1  UNL1        0.0233
     36 H           5.2196   -1.5446    0.0000 H       1  UNL1        0.0233
     37 H           5.9789   -1.9830    0.0000 H       1  UNL1        0.0233
     38 H           2.8698   -1.7585    0.0000 H       1  UNL1        0.0279
     39 H           2.9496   -2.6316    0.0000 H       1  UNL1        0.0279
     40 H           3.8228   -2.5518    0.0000 H       1  UNL1        0.0279
     41 H           3.3651    1.4432    0.0000 H       1  UNL1        0.2923
     42 H           1.5266   -0.5936    0.0000 H       1  UNL1        0.0660
     43 H           1.5996   -1.4674    0.0000 H       1  UNL1        0.0660
     44 H           2.4734   -1.3943    0.0000 H       1  UNL1        0.0660
@<TRIPOS>BOND
     1     1     4    1
     2     1    12    1
     3     2    14    1
     4     2    41    1
     5     3    18    1
     6     3    20    1
     7     4     6    1
     8     4     8    1
     9     4     9    1
    10     5     7    1
    11     5    10    1
    12     5    11    1
    13     5    21    1
    14     6     7    1
    15     6    22    1
    16     6    23    1
    17     7    24    1
    18     7    25    1
    19     8    10   ar
    20     8    13   ar
    21     9    15    1
    22     9    16    1
    23     9    26    1
    24    10    14   ar
    25    11    12    1
    26    11    27    1
    27    11    28    1
    28    12    29    1
    29    12    30    1
    30    13    17   ar
    31    13    31    1
    32    14    18   ar
    33    15    32    1
    34    15    33    1
    35    15    34    1
    36    16    35    1
    37    16    36    1
    38    16    37    1
    39    17    18   ar
    40    17    19    1
    41    19    38    1
    42    19    39    1
    43    19    40    1
    44    20    42    1
    45    20    43    1
    46    20    44    1
