@<TRIPOS>MOLECULE
IMPHY006190
 40 41 0 0 0
SMALL
GASTEIGER

@<TRIPOS>ATOM
      1 O           5.8550   -3.0652    0.0000 O.3     1  UNL1       -0.3909
      2 O           2.0000    2.6900    0.0000 O.3     1  UNL1       -0.4774
      3 O           3.7320    2.6900    0.0000 O.2     1  UNL1       -0.2455
      4 C           4.5981   -1.8100    0.0000 C.3     1  UNL1        0.0098
      5 C           3.7320   -2.3100    0.0000 C.3     1  UNL1       -0.0349
      6 C           4.5981   -0.8100    0.0000 C.2     1  UNL1       -0.0579
      7 C           5.5443   -2.1147    0.0000 C.3     1  UNL1        0.0656
      8 C           3.7320   -0.3100    0.0000 C.3     1  UNL1       -0.0005
      9 C           2.8660   -1.8100    0.0000 C.3     1  UNL1       -0.0490
     10 C           2.8660   -0.8100    0.0000 C.3     1  UNL1       -0.0427
     11 C           6.1279   -1.3100    0.0000 C.3     1  UNL1       -0.0050
     12 C           5.5443   -0.5053    0.0000 C.2     1  UNL1       -0.0700
     13 C           3.7320   -3.3100    0.0000 C.3     1  UNL1       -0.0618
     14 C           3.7320    0.6900    0.0000 C.2     1  UNL1       -0.0672
     15 C           5.8550    0.4453    0.0000 C.3     1  UNL1       -0.0434
     16 C           2.8660    1.1900    0.0000 C.2     1  UNL1        0.0300
     17 C           2.0000    0.6900    0.0000 C.3     1  UNL1       -0.0332
     18 C           2.8660    2.1900    0.0000 C.2     1  UNL1        0.3322
     19 H           4.6880   -2.6552    0.0000 H       1  UNL1        0.0374
     20 H           4.4682   -2.7350    0.0000 H       1  UNL1        0.0305
     21 H           4.9446   -2.7171    0.0000 H       1  UNL1        0.0602
     22 H           4.4682    0.1150    0.0000 H       1  UNL1        0.0388
     23 H           2.2554   -1.7023    0.0000 H       1  UNL1        0.0268
     24 H           2.6540   -2.3926    0.0000 H       1  UNL1        0.0268
     25 H           2.6540   -0.2274    0.0000 H       1  UNL1        0.0274
     26 H           2.2554   -0.9177    0.0000 H       1  UNL1        0.0274
     27 H           6.5888   -1.7247    0.0000 H       1  UNL1        0.0335
     28 H           6.5888   -0.8953    0.0000 H       1  UNL1        0.0335
     29 H           3.1120   -3.3100    0.0000 H       1  UNL1        0.0233
     30 H           3.7320   -3.9300    0.0000 H       1  UNL1        0.0233
     31 H           4.3520   -3.3100    0.0000 H       1  UNL1        0.0233
     32 H           4.2690    1.0000    0.0000 H       1  UNL1        0.0583
     33 H           6.4443    0.2526    0.0000 H       1  UNL1        0.0274
     34 H           6.0476    1.0346    0.0000 H       1  UNL1        0.0274
     35 H           5.2656    0.6379    0.0000 H       1  UNL1        0.0274
     36 H           6.4616   -3.1931    0.0000 H       1  UNL1        0.2098
     37 H           1.6900    1.2269    0.0000 H       1  UNL1        0.0280
     38 H           1.4631    0.3800    0.0000 H       1  UNL1        0.0280
     39 H           2.3100    0.1531    0.0000 H       1  UNL1        0.0280
     40 H           2.0000    3.3100    0.0000 H       1  UNL1        0.2954
@<TRIPOS>BOND
     1     1     7    1
     2     1    36    1
     3     2    18    1
     4     2    40    1
     5     3    18    2
     6     4     5    1
     7     4     6    1
     8     4     7    1
     9     4    19    1
    10     5     9    1
    11     5    13    1
    12     5    20    1
    13     6     8    1
    14     6    12    2
    15     7    11    1
    16     7    21    1
    17     8    10    1
    18     8    14    1
    19     8    22    1
    20     9    10    1
    21     9    23    1
    22     9    24    1
    23    10    25    1
    24    10    26    1
    25    11    12    1
    26    11    27    1
    27    11    28    1
    28    12    15    1
    29    13    29    1
    30    13    30    1
    31    13    31    1
    32    14    16    2
    33    14    32    1
    34    15    33    1
    35    15    34    1
    36    15    35    1
    37    16    17    1
    38    16    18    1
    39    17    37    1
    40    17    38    1
    41    17    39    1
