@<TRIPOS>MOLECULE
IMPHY003074
 52 54 0 0 0
SMALL
GASTEIGER

@<TRIPOS>ATOM
      1 O           4.6660   -0.1481    0.0000 O.2     1  UNL1       -0.4504
      2 O           8.1962   -0.1723    0.0000 O.3     1  UNL1       -0.5060
      3 O           6.4144    2.8864    0.0000 O.3     1  UNL1       -0.5055
      4 O           4.6660    2.8519    0.0000 O.2     1  UNL1       -0.2863
      5 O           2.9176   -1.1827    0.0000 O.3     1  UNL1       -0.5033
      6 C           6.4260   -0.1828    0.0000 C.ar    1  UNL1        0.0412
      7 C           5.5321    0.3519    0.0000 C.ar    1  UNL1        0.1499
      8 C           5.5321    1.3518    0.0000 C.ar    1  UNL1        0.1066
      9 C           7.3321    1.3727    0.0000 C.ar    1  UNL1        0.0403
     10 C           7.3321    0.3310    0.0000 C.ar    1  UNL1        0.1308
     11 C           6.4260    1.8865    0.0000 C.ar    1  UNL1        0.1382
     12 C           6.4144   -1.1827    0.0000 C.3     1  UNL1       -0.0023
     13 C           8.1962    1.8760    0.0000 C.3     1  UNL1       -0.0023
     14 C           4.6660    1.8518    0.0000 C.ar    1  UNL1        0.2038
     15 C           3.8000    1.3518    0.0000 C.ar    1  UNL1        0.0683
     16 C           3.8000    0.3519    0.0000 C.ar    1  UNL1        0.1804
     17 C           7.2746   -1.6927    0.0000 C.2     1  UNL1       -0.0807
     18 C           9.0641    1.3793    0.0000 C.2     1  UNL1       -0.0807
     19 C           2.9061    1.8865    0.0000 C.ar    1  UNL1       -0.0471
     20 C           2.9061   -0.1828    0.0000 C.ar    1  UNL1        0.1598
     21 C           7.2631   -2.6927    0.0000 C.2     1  UNL1       -0.0793
     22 C           9.9282    1.8827    0.0000 C.2     1  UNL1       -0.0793
     23 C           2.0000    1.3727    0.0000 C.ar    1  UNL1       -0.0574
     24 C           2.0000    0.3310    0.0000 C.ar    1  UNL1       -0.0165
     25 C           8.1232   -3.2026    0.0000 C.3     1  UNL1       -0.0440
     26 C           6.3913   -3.1826    0.0000 C.3     1  UNL1       -0.0440
     27 C          10.7961    1.3860    0.0000 C.3     1  UNL1       -0.0440
     28 C           9.9243    2.8827    0.0000 C.3     1  UNL1       -0.0440
     29 H           5.8051   -1.0680    0.0000 H       1  UNL1        0.0358
     30 H           6.1957   -1.7629    0.0000 H       1  UNL1        0.0358
     31 H           8.5929    2.3525    0.0000 H       1  UNL1        0.0358
     32 H           7.7958    2.3494    0.0000 H       1  UNL1        0.0358
     33 H           7.8151   -1.3889    0.0000 H       1  UNL1        0.0575
     34 H           9.0665    0.7593    0.0000 H       1  UNL1        0.0575
     35 H           2.9132    2.5065    0.0000 H       1  UNL1        0.0626
     36 H           8.7343    0.1356    0.0000 H       1  UNL1        0.2922
     37 H           6.9478    3.2026    0.0000 H       1  UNL1        0.2922
     38 H           1.4643    1.6847    0.0000 H       1  UNL1        0.0619
     39 H           1.4643    0.0190    0.0000 H       1  UNL1        0.0655
     40 H           7.8071   -3.7360    0.0000 H       1  UNL1        0.0274
     41 H           8.6566   -3.5188    0.0000 H       1  UNL1        0.0274
     42 H           8.4394   -2.6693    0.0000 H       1  UNL1        0.0274
     43 H           6.0875   -2.6421    0.0000 H       1  UNL1        0.0274
     44 H           5.8508   -3.4864    0.0000 H       1  UNL1        0.0274
     45 H           6.6951   -3.7231    0.0000 H       1  UNL1        0.0274
     46 H          10.5443    2.8851    0.0000 H       1  UNL1        0.0274
     47 H           9.9220    3.5027    0.0000 H       1  UNL1        0.0274
     48 H           9.3044    2.8803    0.0000 H       1  UNL1        0.0274
     49 H          10.4882    0.8479    0.0000 H       1  UNL1        0.0274
     50 H          11.3343    1.0781    0.0000 H       1  UNL1        0.0274
     51 H          11.1041    1.9242    0.0000 H       1  UNL1        0.0274
     52 H           2.3843   -1.4989    0.0000 H       1  UNL1        0.2923
@<TRIPOS>BOND
     1     1     7   ar
     2     1    16   ar
     3     2    10    1
     4     2    36    1
     5     3    11    1
     6     3    37    1
     7     4    14    2
     8     5    20    1
     9     5    52    1
    10     6     7   ar
    11     6    10   ar
    12     6    12    1
    13     7     8   ar
    14     8    11   ar
    15     8    14   ar
    16     9    10   ar
    17     9    11   ar
    18     9    13    1
    19    12    17    1
    20    12    29    1
    21    12    30    1
    22    13    18    1
    23    13    31    1
    24    13    32    1
    25    14    15   ar
    26    15    16   ar
    27    15    19   ar
    28    16    20   ar
    29    17    21    2
    30    17    33    1
    31    18    22    2
    32    18    34    1
    33    19    23   ar
    34    19    35    1
    35    20    24   ar
    36    21    25    1
    37    21    26    1
    38    22    27    1
    39    22    28    1
    40    23    24   ar
    41    23    38    1
    42    24    39    1
    43    25    40    1
    44    25    41    1
    45    25    42    1
    46    26    43    1
    47    26    44    1
    48    26    45    1
    49    27    49    1
    50    27    50    1
    51    27    51    1
    52    28    46    1
    53    28    47    1
    54    28    48    1
