@<TRIPOS>MOLECULE
IMPHY006720
 47 52 0 0 0
SMALL
GASTEIGER

@<TRIPOS>ATOM
      1 O           5.6307    4.0816    0.0000 O.2     1  UNL1       -0.2749
      2 O           5.8422   -3.5447    0.0000 O.3     1  UNL1       -0.3910
      3 N           3.3369   -0.1988    0.0000 N.3     1  UNL1       -0.2945
      4 N           4.9022    2.5124    0.0000 N.am    1  UNL1       -0.2629
      5 C           4.2620    1.0745    0.0000 C.3     1  UNL1        0.0369
      6 C           4.2620    0.1018    0.0000 C.3     1  UNL1        0.0233
      7 C           5.1045    1.5609    0.0000 C.3     1  UNL1        0.0637
      8 C           3.3369    1.3751    0.0000 C.3     1  UNL1       -0.0270
      9 C           5.1045   -0.3846    0.0000 C.3     1  UNL1       -0.0261
     10 C           5.9469    0.1018    0.0000 C.3     1  UNL1        0.0057
     11 C           5.9469    1.0745    0.0000 C.2     1  UNL1       -0.0444
     12 C           2.7652    0.5882    0.0000 C.3     1  UNL1        0.0004
     13 C           3.5392    1.7254    0.0000 C.ar    1  UNL1       -0.0162
     14 C           4.1101   -0.9466    0.0000 C.3     1  UNL1        0.0210
     15 C           5.3422   -0.9466    0.0000 C.2     1  UNL1       -0.0502
     16 C           3.9348    2.6141    0.0000 C.ar    1  UNL1        0.0408
     17 C           6.7459    1.6779    0.0000 C.2     1  UNL1       -0.0737
     18 C           5.7230    3.0859    0.0000 C.2     1  UNL1        0.2241
     19 C           2.5718    1.6238    0.0000 C.ar    1  UNL1       -0.0562
     20 C           6.6352    2.6730    0.0000 C.3     1  UNL1        0.0430
     21 C           3.3630    3.4010    0.0000 C.ar    1  UNL1       -0.0400
     22 C           5.8422   -1.8126    0.0000 C.2     1  UNL1       -0.0579
     23 C           2.0000    2.4107    0.0000 C.ar    1  UNL1       -0.0614
     24 C           2.3956    3.2994    0.0000 C.ar    1  UNL1       -0.0600
     25 C           5.3422   -2.6786    0.0000 C.3     1  UNL1        0.0627
     26 H           3.7928   -0.6069    0.0000 H       1  UNL1        0.0472
     27 H           5.7921    2.0605    0.0000 H       1  UNL1        0.0560
     28 H           3.5891    1.9415    0.0000 H       1  UNL1        0.0287
     29 H           2.8000    1.6851    0.0000 H       1  UNL1        0.0287
     30 H           4.7059   -0.8595    0.0000 H       1  UNL1        0.0289
     31 H           5.5030   -0.8595    0.0000 H       1  UNL1        0.0289
     32 H           6.7680   -0.1180    0.0000 H       1  UNL1        0.0392
     33 H           2.3044    1.0030    0.0000 H       1  UNL1        0.0427
     34 H           2.3044    0.1733    0.0000 H       1  UNL1        0.0427
     35 H           3.5767   -1.2626    0.0000 H       1  UNL1        0.0473
     36 H           4.2739   -1.5446    0.0000 H       1  UNL1        0.0473
     37 H           7.3154    1.4327    0.0000 H       1  UNL1        0.0577
     38 H           2.3196    1.0574    0.0000 H       1  UNL1        0.0621
     39 H           7.2537    2.6310    0.0000 H       1  UNL1        0.0401
     40 H           6.7864    3.2743    0.0000 H       1  UNL1        0.0401
     41 H           3.6152    3.9674    0.0000 H       1  UNL1        0.0636
     42 H           6.4622   -1.8126    0.0000 H       1  UNL1        0.0595
     43 H           1.3834    2.3459    0.0000 H       1  UNL1        0.0618
     44 H           2.0312    3.8009    0.0000 H       1  UNL1        0.0618
     45 H           4.8673   -2.2801    0.0000 H       1  UNL1        0.0601
     46 H           4.8673   -3.0772    0.0000 H       1  UNL1        0.0601
     47 H           5.5322   -4.0816    0.0000 H       1  UNL1        0.2098
@<TRIPOS>BOND
     1     1    18    2
     2     2    25    1
     3     2    47    1
     4     3     6    1
     5     3    12    1
     6     3    14    1
     7     4     7    1
     8     4    16    1
     9     4    18   am
    10     5     6    1
    11     5     7    1
    12     5     8    1
    13     5    13    1
    14     6     9    1
    15     6    26    1
    16     7    11    1
    17     7    27    1
    18     8    12    1
    19     8    28    1
    20     8    29    1
    21     9    10    1
    22     9    30    1
    23     9    31    1
    24    10    11    1
    25    10    15    1
    26    10    32    1
    27    11    17    2
    28    12    33    1
    29    12    34    1
    30    13    16   ar
    31    13    19   ar
    32    14    15    1
    33    14    35    1
    34    14    36    1
    35    15    22    2
    36    16    21   ar
    37    17    20    1
    38    17    37    1
    39    18    20    1
    40    19    23   ar
    41    19    38    1
    42    20    39    1
    43    20    40    1
    44    21    24   ar
    45    21    41    1
    46    22    25    1
    47    22    42    1
    48    23    24   ar
    49    23    43    1
    50    24    44    1
    51    25    45    1
    52    25    46    1
