@<TRIPOS>MOLECULE
IMPHY001566
 57 59 0 0 0
SMALL
GASTEIGER

@<TRIPOS>ATOM
      1 O           2.9176    0.3964    0.0000 O.3     1  UNL1       -0.3912
      2 O           7.9534    1.2705    0.0000 O.3     1  UNL1       -0.3887
      3 O           6.9601    3.0064    0.0000 O.3     1  UNL1       -0.3924
      4 C           3.8000   -1.1382    0.0000 C.3     1  UNL1        0.0037
      5 C           3.8000   -2.1382    0.0000 C.3     1  UNL1       -0.0273
      6 C           4.6660   -0.6381    0.0000 C.3     1  UNL1       -0.0118
      7 C           2.9061   -2.6728    0.0000 C.3     1  UNL1       -0.0314
      8 C           2.9061   -0.6035    0.0000 C.3     1  UNL1        0.0614
      9 C           4.6660   -2.6382    0.0000 C.3     1  UNL1       -0.0454
     10 C           5.5321   -1.1382    0.0000 C.2     1  UNL1       -0.0691
     11 C           2.0000   -2.1590    0.0000 C.3     1  UNL1       -0.0452
     12 C           2.0000   -1.1173    0.0000 C.3     1  UNL1       -0.0258
     13 C           4.6500    0.4034    0.0000 C.3     1  UNL1       -0.0451
     14 C           5.5321   -2.1382    0.0000 C.3     1  UNL1       -0.0312
     15 C           3.8000   -0.1381    0.0000 C.3     1  UNL1       -0.0564
     16 C           6.4501    0.4103    0.0000 C.3     1  UNL1        0.0143
     17 C           5.5480    0.9311    0.0000 C.3     1  UNL1       -0.0412
     18 C           6.4421   -0.6313    0.0000 C.2     1  UNL1       -0.0760
     19 C           2.4161   -3.5446    0.0000 C.3     1  UNL1       -0.0595
     20 C           3.4160   -3.5330    0.0000 C.3     1  UNL1       -0.0595
     21 C           6.9534    1.2744    0.0000 C.3     1  UNL1        0.0870
     22 C           7.4501    0.4064    0.0000 C.3     1  UNL1       -0.0536
     23 C           6.4568    2.1423    0.0000 C.3     1  UNL1        0.0709
     24 H           3.8066   -2.9881    0.0000 H       1  UNL1        0.0312
     25 H           5.3989   -0.2075    0.0000 H       1  UNL1        0.0352
     26 H           2.3721   -0.2883    0.0000 H       1  UNL1        0.0599
     27 H           4.2675   -3.1131    0.0000 H       1  UNL1        0.0271
     28 H           5.0646   -3.1131    0.0000 H       1  UNL1        0.0271
     29 H           1.3891   -2.0529    0.0000 H       1  UNL1        0.0271
     30 H           1.7909   -2.7426    0.0000 H       1  UNL1        0.0271
     31 H           1.7909   -0.5336    0.0000 H       1  UNL1        0.0290
     32 H           1.3891   -1.2234    0.0000 H       1  UNL1        0.0290
     33 H           4.4319    0.9838    0.0000 H       1  UNL1        0.0271
     34 H           4.0408    0.2879    0.0000 H       1  UNL1        0.0271
     35 H           5.7441   -2.7208    0.0000 H       1  UNL1        0.0310
     36 H           6.1426   -2.0305    0.0000 H       1  UNL1        0.0310
     37 H           4.4200   -0.1381    0.0000 H       1  UNL1        0.0236
     38 H           3.8000    0.4819    0.0000 H       1  UNL1        0.0236
     39 H           3.1800   -0.1381    0.0000 H       1  UNL1        0.0236
     40 H           5.9453    1.4071    0.0000 H       1  UNL1        0.0274
     41 H           5.1470    1.4040    0.0000 H       1  UNL1        0.0274
     42 H           6.9754   -0.9475    0.0000 H       1  UNL1        0.0578
     43 H           1.8756   -3.2408    0.0000 H       1  UNL1        0.0235
     44 H           2.1123   -4.0850    0.0000 H       1  UNL1        0.0235
     45 H           2.9566   -3.8483    0.0000 H       1  UNL1        0.0235
     46 H           2.8827   -3.8492    0.0000 H       1  UNL1        0.0235
     47 H           3.7322   -4.0663    0.0000 H       1  UNL1        0.0235
     48 H           3.9494   -3.2168    0.0000 H       1  UNL1        0.0235
     49 H           7.2655    1.8101    0.0000 H       1  UNL1        0.0625
     50 H           2.3843    0.7126    0.0000 H       1  UNL1        0.2098
     51 H           7.4477   -0.2136    0.0000 H       1  UNL1        0.0239
     52 H           8.0701    0.4041    0.0000 H       1  UNL1        0.0239
     53 H           7.4525    1.0264    0.0000 H       1  UNL1        0.0239
     54 H           5.9834    2.5427    0.0000 H       1  UNL1        0.0583
     55 H           5.9803    1.7456    0.0000 H       1  UNL1        0.0583
     56 H           8.2655    1.8063    0.0000 H       1  UNL1        0.2099
     57 H           6.6522    3.5446    0.0000 H       1  UNL1        0.2095
@<TRIPOS>BOND
     1     8     1    1
     2     1    50    1
     3    21     2    1
     4     2    56    1
     5     3    23    1
     6     3    57    1
     7     4     5    1
     8     4     6    1
     9     4     8    1
    10     4    15    1
    11     5     7    1
    12     5     9    1
    13     5    24    1
    14     6    10    1
    15     6    13    1
    16     6    25    1
    17     7    11    1
    18     7    19    1
    19     7    20    1
    20     8    12    1
    21     8    26    1
    22     9    14    1
    23     9    27    1
    24     9    28    1
    25    10    14    1
    26    10    18    2
    27    11    12    1
    28    11    29    1
    29    11    30    1
    30    12    31    1
    31    12    32    1
    32    13    17    1
    33    13    33    1
    34    13    34    1
    35    14    35    1
    36    14    36    1
    37    15    37    1
    38    15    38    1
    39    15    39    1
    40    16    17    1
    41    16    18    1
    42    16    21    1
    43    16    22    1
    44    17    40    1
    45    17    41    1
    46    18    42    1
    47    19    43    1
    48    19    44    1
    49    19    45    1
    50    20    46    1
    51    20    47    1
    52    20    48    1
    53    21    23    1
    54    21    49    1
    55    22    51    1
    56    22    52    1
    57    22    53    1
    58    23    54    1
    59    23    55    1
