@<TRIPOS>MOLECULE
IMPHY016803
 33 33 0 0 0
SMALL
GASTEIGER

@<TRIPOS>ATOM
      1 O           4.7690    2.1830    0.0000 O.3     1  UNL1       -0.3862
      2 O           2.5369   -0.6830    0.0000 O.3     1  UNL1       -0.3889
      3 O           2.5369    1.3170    0.0000 O.3     1  UNL1       -0.3864
      4 C           4.2690   -0.6830    0.0000 C.3     1  UNL1       -0.0100
      5 C           4.2690    1.3170    0.0000 C.3     1  UNL1        0.0915
      6 C           3.4030   -0.1830    0.0000 C.3     1  UNL1        0.0868
      7 C           3.4030    0.8170    0.0000 C.3     1  UNL1        0.1096
      8 C           5.1350   -0.1830    0.0000 C.3     1  UNL1       -0.0449
      9 C           5.1350    0.8170    0.0000 C.3     1  UNL1       -0.0214
     10 C           4.2690   -1.6830    0.0000 C.3     1  UNL1       -0.0415
     11 C           3.7690    2.1830    0.0000 C.3     1  UNL1       -0.0336
     12 C           5.1350   -2.1830    0.0000 C.3     1  UNL1       -0.0623
     13 C           3.4030   -2.1830    0.0000 C.3     1  UNL1       -0.0623
     14 H           4.8059   -0.9930    0.0000 H       1  UNL1        0.0329
     15 H           3.4030   -0.8030    0.0000 H       1  UNL1        0.0623
     16 H           3.4030    1.4370    0.0000 H       1  UNL1        0.0648
     17 H           5.3471   -0.7656    0.0000 H       1  UNL1        0.0270
     18 H           5.7456   -0.0754    0.0000 H       1  UNL1        0.0270
     19 H           5.7456    0.7093    0.0000 H       1  UNL1        0.0294
     20 H           5.3471    1.3996    0.0000 H       1  UNL1        0.0294
     21 H           4.2690   -2.3030    0.0000 H       1  UNL1        0.0299
     22 H           4.3059    2.4930    0.0000 H       1  UNL1        0.0258
     23 H           3.4590    2.7200    0.0000 H       1  UNL1        0.0258
     24 H           3.2320    1.8730    0.0000 H       1  UNL1        0.0258
     25 H           4.8250   -2.7200    0.0000 H       1  UNL1        0.0232
     26 H           5.6720   -2.4930    0.0000 H       1  UNL1        0.0232
     27 H           5.4450   -1.6461    0.0000 H       1  UNL1        0.0232
     28 H           3.0930   -1.6461    0.0000 H       1  UNL1        0.0232
     29 H           2.8660   -2.4930    0.0000 H       1  UNL1        0.0232
     30 H           3.7130   -2.7200    0.0000 H       1  UNL1        0.0232
     31 H           5.3890    2.1830    0.0000 H       1  UNL1        0.2103
     32 H           2.0000   -0.3730    0.0000 H       1  UNL1        0.2099
     33 H           2.0000    1.0070    0.0000 H       1  UNL1        0.2100
@<TRIPOS>BOND
     1     1     5    1
     2     1    31    1
     3     2     6    1
     4     2    32    1
     5     3     7    1
     6     3    33    1
     7     4     6    1
     8     4     8    1
     9     4    10    1
    10     4    14    1
    11     5     7    1
    12     5     9    1
    13     5    11    1
    14     6     7    1
    15     6    15    1
    16     7    16    1
    17     8     9    1
    18     8    17    1
    19     8    18    1
    20     9    19    1
    21     9    20    1
    22    10    12    1
    23    10    13    1
    24    10    21    1
    25    11    22    1
    26    11    23    1
    27    11    24    1
    28    12    25    1
    29    12    26    1
    30    12    27    1
    31    13    28    1
    32    13    29    1
    33    13    30    1
