@<TRIPOS>MOLECULE
IMPHY007995
 83 85 0 0 0
SMALL
GASTEIGER

@<TRIPOS>ATOM
      1 O           5.8865    1.1566    0.0000 O.3     1  UNL1       -0.4567
      2 O           9.4782   -1.2726    0.0000 O.3     1  UNL1       -0.4299
      3 O           3.8801   -3.5047    0.0000 O.3     1  UNL1       -0.4606
      4 O           2.7071   -0.4583    0.0000 O.3     1  UNL1       -0.4675
      5 O           3.9318    0.7664    0.0000 O.2     1  UNL1       -0.2502
      6 O           6.9553    2.5196    0.0000 O.2     1  UNL1       -0.2450
      7 O           9.4782    0.4594    0.0000 O.2     1  UNL1       -0.2507
      8 O           2.3801   -2.6387    0.0000 O.2     1  UNL1       -0.2512
      9 C           6.9782   -0.4066    0.0000 C.3     1  UNL1        0.0392
     10 C           7.4782    1.1232    0.0000 C.3     1  UNL1       -0.0020
     11 C           6.6735    0.5396    0.0000 C.3     1  UNL1        0.1162
     12 C           8.2830    0.5396    0.0000 C.3     1  UNL1       -0.0216
     13 C           7.9782   -0.4066    0.0000 C.2     1  UNL1       -0.0202
     14 C           6.1122   -0.9066    0.0000 C.2     1  UNL1       -0.0736
     15 C           8.4782   -1.2726    0.0000 C.2     1  UNL1        0.1152
     16 C           7.4782    2.1232    0.0000 C.3     1  UNL1       -0.0587
     17 C           5.3801   -2.6387    0.0000 C.3     1  UNL1        0.0202
     18 C           5.2462   -0.4066    0.0000 C.2     1  UNL1       -0.0621
     19 C           4.3801   -0.9066    0.0000 C.3     1  UNL1        0.0806
     20 C           7.9782   -2.1387    0.0000 C.3     1  UNL1        0.0325
     21 C           4.3801   -2.6387    0.0000 C.3     1  UNL1        0.1126
     22 C           3.8801   -1.7726    0.0000 C.3     1  UNL1        0.0018
     23 C           6.2462   -2.1387    0.0000 C.2     1  UNL1       -0.0781
     24 C           7.1122   -2.6387    0.0000 C.2     1  UNL1       -0.0772
     25 C           5.0382   -3.5784    0.0000 C.3     1  UNL1       -0.0530
     26 C           5.8801   -3.5047    0.0000 C.3     1  UNL1       -0.0530
     27 C           4.9041    0.5331    0.0000 C.3     1  UNL1       -0.0430
     28 C           8.6853   -2.8458    0.0000 C.3     1  UNL1       -0.0520
     29 C           3.6730   -0.1995    0.0000 C.2     1  UNL1        0.3141
     30 C           6.0274    2.1466    0.0000 C.2     1  UNL1        0.3395
     31 C           9.9782   -0.4066    0.0000 C.2     1  UNL1        0.3089
     32 C           5.2405    2.7637    0.0000 C.ar    1  UNL1        0.0590
     33 C           2.8801   -3.5047    0.0000 C.2     1  UNL1        0.3042
     34 C          10.9782   -0.4066    0.0000 C.3     1  UNL1        0.0336
     35 C           5.3814    3.7537    0.0000 C.ar    1  UNL1       -0.0478
     36 C           4.3126    2.3907    0.0000 C.ar    1  UNL1       -0.0478
     37 C           2.3801   -4.3707    0.0000 C.3     1  UNL1        0.0332
     38 C           2.0000    0.2488    0.0000 C.3     1  UNL1        0.0817
     39 C           4.5944    4.3707    0.0000 C.ar    1  UNL1       -0.0610
     40 C           3.5257    3.0077    0.0000 C.ar    1  UNL1       -0.0610
     41 C           3.6666    3.9977    0.0000 C.ar    1  UNL1       -0.0617
     42 H           6.3997   -0.1837    0.0000 H       1  UNL1        0.0425
     43 H           8.0305    1.4049    0.0000 H       1  UNL1        0.0337
     44 H           6.1648    0.1851    0.0000 H       1  UNL1        0.0746
     45 H           8.8498    0.2886    0.0000 H       1  UNL1        0.0315
     46 H           8.5922    1.0770    0.0000 H       1  UNL1        0.0315
     47 H           6.5108   -1.3815    0.0000 H       1  UNL1        0.0579
     48 H           8.0982    2.1232    0.0000 H       1  UNL1        0.0234
     49 H           7.4782    2.7432    0.0000 H       1  UNL1        0.0234
     50 H           6.8582    2.1232    0.0000 H       1  UNL1        0.0234
     51 H           4.4611   -0.2919    0.0000 H       1  UNL1        0.0460
     52 H           8.5929   -2.0578    0.0000 H       1  UNL1        0.0419
     53 H           3.7601   -2.6387    0.0000 H       1  UNL1        0.0743
     54 H           3.4052   -1.3741    0.0000 H       1  UNL1        0.0312
     55 H           3.4052   -2.1712    0.0000 H       1  UNL1        0.0312
     56 H           6.6447   -1.6637    0.0000 H       1  UNL1        0.0576
     57 H           7.1122   -3.2587    0.0000 H       1  UNL1        0.0576
     58 H           5.3432   -3.8147    0.0000 H       1  UNL1        0.0239
     59 H           6.1901   -4.0416    0.0000 H       1  UNL1        0.0239
     60 H           6.4171   -3.1947    0.0000 H       1  UNL1        0.0239
     61 H           4.4556   -3.3664    0.0000 H       1  UNL1        0.0239
     62 H           4.8262   -4.1610    0.0000 H       1  UNL1        0.0239
     63 H           5.6208   -3.7904    0.0000 H       1  UNL1        0.0239
     64 H           5.4868    0.7451    0.0000 H       1  UNL1        0.0275
     65 H           4.6921    1.1157    0.0000 H       1  UNL1        0.0275
     66 H           4.3215    0.3210    0.0000 H       1  UNL1        0.0275
     67 H           8.2469   -3.2842    0.0000 H       1  UNL1        0.0239
     68 H           9.1237   -3.2842    0.0000 H       1  UNL1        0.0239
     69 H           9.1237   -2.4074    0.0000 H       1  UNL1        0.0239
     70 H          10.9782   -1.0266    0.0000 H       1  UNL1        0.0342
     71 H          11.5982   -0.4066    0.0000 H       1  UNL1        0.0342
     72 H          10.9782    0.2134    0.0000 H       1  UNL1        0.0342
     73 H           5.9566    3.9850    0.0000 H       1  UNL1        0.0626
     74 H           4.2253    1.7769    0.0000 H       1  UNL1        0.0626
     75 H           1.8432   -4.0607    0.0000 H       1  UNL1        0.0342
     76 H           2.0701   -4.9077    0.0000 H       1  UNL1        0.0342
     77 H           2.9171   -4.6807    0.0000 H       1  UNL1        0.0342
     78 H           2.4384    0.6872    0.0000 H       1  UNL1        0.0661
     79 H           1.5616    0.6872    0.0000 H       1  UNL1        0.0661
     80 H           1.5616   -0.1896    0.0000 H       1  UNL1        0.0661
     81 H           4.6818    4.9845    0.0000 H       1  UNL1        0.0618
     82 H           2.9504    2.7764    0.0000 H       1  UNL1        0.0618
     83 H           3.1787    4.3803    0.0000 H       1  UNL1        0.0618
@<TRIPOS>BOND
     1    11     1    1
     2     1    30    1
     3     2    15    1
     4     2    31    1
     5    21     3    1
     6     3    33    1
     7     4    29    1
     8     4    38    1
     9     5    29    2
    10     6    30    2
    11     7    31    2
    12     8    33    2
    13     9    11    1
    14     9    13    1
    15     9    14    1
    16     9    42    1
    17    10    11    1
    18    10    12    1
    19    10    16    1
    20    10    43    1
    21    11    44    1
    22    12    13    1
    23    12    45    1
    24    12    46    1
    25    13    15    2
    26    14    18    2
    27    14    47    1
    28    15    20    1
    29    16    48    1
    30    16    49    1
    31    16    50    1
    32    17    21    1
    33    17    23    1
    34    17    25    1
    35    17    26    1
    36    18    19    1
    37    18    27    1
    38    19    22    1
    39    19    29    1
    40    19    51    1
    41    20    24    1
    42    20    28    1
    43    20    52    1
    44    21    22    1
    45    21    53    1
    46    22    54    1
    47    22    55    1
    48    23    24    2
    49    23    56    1
    50    24    57    1
    51    25    61    1
    52    25    62    1
    53    25    63    1
    54    26    58    1
    55    26    59    1
    56    26    60    1
    57    27    64    1
    58    27    65    1
    59    27    66    1
    60    28    67    1
    61    28    68    1
    62    28    69    1
    63    30    32    1
    64    31    34    1
    65    32    35   ar
    66    32    36   ar
    67    33    37    1
    68    34    70    1
    69    34    71    1
    70    34    72    1
    71    35    39   ar
    72    35    73    1
    73    36    40   ar
    74    36    74    1
    75    37    75    1
    76    37    76    1
    77    37    77    1
    78    38    78    1
    79    38    79    1
    80    38    80    1
    81    39    41   ar
    82    39    81    1
    83    40    41   ar
    84    40    82    1
    85    41    83    1
