@<TRIPOS>MOLECULE
IMPHY010743
 22 24 0 0 0
SMALL
GASTEIGER

@<TRIPOS>ATOM
      1 O           3.4075   -1.8561    0.0000 O.3     1  UNL1       -0.4496
      2 O           2.3784    0.0524    0.0000 O.3     1  UNL1       -0.2189
      3 O           6.0055    3.2251    0.0000 O.3     1  UNL1       -0.4487
      4 O           7.7453    3.5833    0.0000 O.2     1  UNL1       -0.2453
      5 O           4.9681   -2.6076    0.0000 O.2     1  UNL1       -0.2501
      6 C           4.9557    0.2063    0.0000 C.3     1  UNL1        0.0099
      7 C           4.0547    0.6401    0.0000 C.3     1  UNL1        0.0526
      8 C           4.8197   -0.7785    0.0000 C.3     1  UNL1        0.0467
      9 C           5.8566    0.6401    0.0000 C.3     1  UNL1        0.0087
     10 C           3.3696   -0.0802    0.0000 C.3     1  UNL1        0.1953
     11 C           3.8414   -0.9551    0.0000 C.3     1  UNL1        0.1992
     12 C           6.0792    1.6151    0.0000 C.3     1  UNL1        0.0691
     13 C           3.8322    1.6151    0.0000 C.2     1  UNL1       -0.0384
     14 C           5.4557    2.3969    0.0000 C.3     1  UNL1        0.1772
     15 C           5.8566   -0.2276    0.0000 C.3     1  UNL1        0.0005
     16 C           4.4557    2.3969    0.0000 C.3     1  UNL1        0.0661
     17 C           7.0089    1.9668    0.0000 C.2     1  UNL1        0.0566
     18 C           2.8573    1.8376    0.0000 C.2     1  UNL1       -0.0089
     19 C           6.9635    2.9598    0.0000 C.2     1  UNL1        0.3372
     20 C           7.8445    1.4173    0.0000 C.2     1  UNL1        0.0021
     21 C           3.9709   -2.6823    0.0000 C.2     1  UNL1        0.3175
     22 C           3.5370   -3.5833    0.0000 C.3     1  UNL1        0.1212
@<TRIPOS>BOND
     1     1    11    1
     2     1    21    1
     3     2    10    1
     4     3    14    1
     5     3    19    1
     6     4    19    2
     7     5    21    2
     8     6     7    1
     9     6     8    1
    10     6     9    1
    11     6    15    1
    12     7    10    1
    13     7    13    1
    14     8    11    1
    15     9    12    1
    16    10    11    1
    17    12    14    1
    18    12    17    1
    19    13    16    1
    20    13    18    2
    21    14    16    1
    22    17    19    1
    23    17    20    2
    24    21    22    1
