@<TRIPOS>MOLECULE
IMPHY015145
 33 34 0 0 0
SMALL
GASTEIGER

@<TRIPOS>ATOM
      1 O           4.5981    2.0173    0.0000 O.2     1  UNL1       -0.2920
      2 C           3.7320   -0.4827    0.0000 C.3     1  UNL1       -0.0277
      3 C           2.8660   -0.9827    0.0000 C.3     1  UNL1       -0.0432
      4 C           4.5981   -0.9827    0.0000 C.3     1  UNL1       -0.0233
      5 C           3.7320    0.5173    0.0000 C.3     1  UNL1        0.0138
      6 C           5.4641   -0.4827    0.0000 C.ar    1  UNL1       -0.0337
      7 C           5.4641    0.5173    0.0000 C.ar    1  UNL1        0.0208
      8 C           4.5981    1.0173    0.0000 C.2     1  UNL1        0.1637
      9 C           2.0000   -0.4827    0.0000 C.3     1  UNL1       -0.0624
     10 C           2.8660   -1.9827    0.0000 C.3     1  UNL1       -0.0624
     11 C           6.3580   -1.0174    0.0000 C.ar    1  UNL1       -0.0466
     12 C           6.3580    1.0520    0.0000 C.ar    1  UNL1       -0.0510
     13 C           7.2641   -0.5035    0.0000 C.ar    1  UNL1       -0.0585
     14 C           7.2641    0.5381    0.0000 C.ar    1  UNL1       -0.0608
     15 C           6.3465   -2.0173    0.0000 C.3     1  UNL1       -0.0394
     16 H           4.2690   -0.1727    0.0000 H       1  UNL1        0.0311
     17 H           2.8660   -0.3627    0.0000 H       1  UNL1        0.0298
     18 H           4.1996   -1.4576    0.0000 H       1  UNL1        0.0316
     19 H           4.9966   -1.4576    0.0000 H       1  UNL1        0.0316
     20 H           3.5200    1.0999    0.0000 H       1  UNL1        0.0348
     21 H           3.1215    0.4096    0.0000 H       1  UNL1        0.0348
     22 H           2.3100    0.0542    0.0000 H       1  UNL1        0.0232
     23 H           1.4631   -0.1727    0.0000 H       1  UNL1        0.0232
     24 H           1.6900   -1.0196    0.0000 H       1  UNL1        0.0232
     25 H           2.2460   -1.9827    0.0000 H       1  UNL1        0.0232
     26 H           2.8660   -2.6027    0.0000 H       1  UNL1        0.0232
     27 H           3.4860   -1.9827    0.0000 H       1  UNL1        0.0232
     28 H           6.3509    1.6719    0.0000 H       1  UNL1        0.0625
     29 H           7.7998   -0.8156    0.0000 H       1  UNL1        0.0620
     30 H           7.7998    0.8502    0.0000 H       1  UNL1        0.0618
     31 H           5.7265   -2.0101    0.0000 H       1  UNL1        0.0278
     32 H           6.3393   -2.6373    0.0000 H       1  UNL1        0.0278
     33 H           6.9664   -2.0245    0.0000 H       1  UNL1        0.0278
@<TRIPOS>BOND
     1     1     8    2
     2     2     3    1
     3     2     4    1
     4     2     5    1
     5     2    16    1
     6     3     9    1
     7     3    10    1
     8     3    17    1
     9     4     6    1
    10     4    18    1
    11     4    19    1
    12     5     8    1
    13     5    20    1
    14     5    21    1
    15     6     7   ar
    16     6    11   ar
    17     7     8    1
    18     7    12   ar
    19     9    22    1
    20     9    23    1
    21     9    24    1
    22    10    25    1
    23    10    26    1
    24    10    27    1
    25    11    13   ar
    26    11    15    1
    27    12    14   ar
    28    12    28    1
    29    13    14   ar
    30    13    29    1
    31    14    30    1
    32    15    31    1
    33    15    32    1
    34    15    33    1
