@<TRIPOS>MOLECULE
IMPHY006308
 26 28 0 0 0
SMALL
GASTEIGER

@<TRIPOS>ATOM
      1 S           2.3219   -1.4531    0.0000 S.3     1  UNL1       -0.1570
      2 S           5.7123   -1.6618    0.0000 S.3     1  UNL1       -0.1241
      3 O           4.5274    1.6618    0.0000 O.2     1  UNL1       -0.2686
      4 N           3.7183    0.0740    0.0000 N.am    1  UNL1       -0.2873
      5 N           6.3518    0.3063    0.0000 N.pl3   1  UNL1       -0.3384
      6 C           4.0274   -0.8771    0.0000 C.3     1  UNL1        0.0682
      7 C           5.0274   -0.8771    0.0000 C.2     1  UNL1        0.0326
      8 C           3.3424   -1.6618    0.0000 C.3     1  UNL1        0.0171
      9 C           2.7029    0.3063    0.0000 C.3     1  UNL1        0.0247
     10 C           5.3364    0.0740    0.0000 C.2     1  UNL1        0.1013
     11 C           4.5274    0.6618    0.0000 C.2     1  UNL1        0.2618
     12 C           2.0000   -0.4624    0.0000 C.3     1  UNL1        0.0096
     13 C           7.0547   -0.4624    0.0000 C.3     1  UNL1        0.0186
     14 C           6.7328   -1.4531    0.0000 C.3     1  UNL1        0.0136
     15 H           4.3791   -1.6509    0.0000 H       1  UNL1        0.0564
     16 H           3.1160   -2.2390    0.0000 H       1  UNL1        0.0398
     17 H           3.8724   -1.9836    0.0000 H       1  UNL1        0.0398
     18 H           2.9426    0.8781    0.0000 H       1  UNL1        0.0473
     19 H           2.1806    0.6402    0.0000 H       1  UNL1        0.0473
     20 H           1.6208    0.0281    0.0000 H       1  UNL1        0.0392
     21 H           1.4518   -0.7521    0.0000 H       1  UNL1        0.0392
     22 H           6.5365    0.8981    0.0000 H       1  UNL1        0.1463
     23 H           7.6029   -0.7521    0.0000 H       1  UNL1        0.0469
     24 H           7.4339    0.0281    0.0000 H       1  UNL1        0.0469
     25 H           6.7513   -2.0728    0.0000 H       1  UNL1        0.0395
     26 H           7.3466   -1.5410    0.0000 H       1  UNL1        0.0395
@<TRIPOS>BOND
     1     1     8    1
     2     1    12    1
     3     2     7    1
     4     2    14    1
     5     3    11    2
     6     4     6    1
     7     4     9    1
     8     4    11   am
     9     5    10    1
    10     5    13    1
    11     5    22    1
    12     6     7    1
    13     6     8    1
    14     6    15    1
    15     7    10    2
    16     8    16    1
    17     8    17    1
    18     9    12    1
    19     9    18    1
    20     9    19    1
    21    10    11    1
    22    12    20    1
    23    12    21    1
    24    13    14    1
    25    13    23    1
    26    13    24    1
    27    14    25    1
    28    14    26    1
