@<TRIPOS>MOLECULE
IMPHY009209
 95 97 0 0 0
SMALL
GASTEIGER

@<TRIPOS>ATOM
      1 O           7.2880   -0.6914    0.0000 O.3     1  UNL1       -0.5060
      2 O           5.5559    2.3086    0.0000 O.3     1  UNL1       -0.5055
      3 O           9.0200    2.3086    0.0000 O.3     1  UNL1       -0.5055
      4 O           6.2400   -1.5708    0.0000 O.3     1  UNL1       -0.4939
      5 O           2.9848   -2.7556    0.0000 O.3     1  UNL1       -0.4939
      6 O           3.5863    0.6559    0.0000 O.3     1  UNL1       -0.5060
      7 O           9.7040   -1.5708    0.0000 O.3     1  UNL1       -0.5055
      8 O          10.3056    1.8407    0.0000 O.3     1  UNL1       -0.5060
      9 O          12.9592   -0.3860    0.0000 O.3     1  UNL1       -0.4939
     10 O           8.1540    3.8086    0.0000 O.2     1  UNL1       -0.2915
     11 O           5.9392   -3.2765    0.0000 O.2     1  UNL1       -0.2915
     12 O          11.0309   -2.6841    0.0000 O.2     1  UNL1       -0.2915
     13 C           6.4219    0.8086    0.0000 C.ar    1  UNL1        0.0411
     14 C           8.1540    0.8086    0.0000 C.ar    1  UNL1        0.0411
     15 C           5.5559    0.3086    0.0000 C.3     1  UNL1        0.0115
     16 C           9.0200    0.3086    0.0000 C.3     1  UNL1        0.0115
     17 C           7.2880    0.3086    0.0000 C.ar    1  UNL1        0.1308
     18 C           4.9132   -0.4575    0.0000 C.ar    1  UNL1        0.0413
     19 C           7.2880    2.3086    0.0000 C.ar    1  UNL1        0.1011
     20 C           6.4219    1.8086    0.0000 C.ar    1  UNL1        0.1378
     21 C          10.0048    0.1350    0.0000 C.ar    1  UNL1        0.0411
     22 C           8.1540    1.8086    0.0000 C.ar    1  UNL1        0.1378
     23 C           5.2551   -1.3971    0.0000 C.ar    1  UNL1        0.1410
     24 C           4.6124   -2.1632    0.0000 C.ar    1  UNL1        0.1015
     25 C           3.9283   -0.2838    0.0000 C.ar    1  UNL1        0.1302
     26 C          10.3468   -0.8047    0.0000 C.ar    1  UNL1        0.1378
     27 C           7.2880    3.3086    0.0000 C.2     1  UNL1        0.1727
     28 C          11.3316   -0.9784    0.0000 C.ar    1  UNL1        0.1013
     29 C          10.6476    0.9010    0.0000 C.ar    1  UNL1        0.1302
     30 C           3.2856   -1.0499    0.0000 C.ar    1  UNL1        0.0337
     31 C           6.4219    3.8086    0.0000 C.3     1  UNL1        0.0167
     32 C           3.6276   -1.9896    0.0000 C.ar    1  UNL1        0.1405
     33 C          11.6324    0.7274    0.0000 C.ar    1  UNL1        0.0337
     34 C          11.9744   -0.2123    0.0000 C.ar    1  UNL1        0.1405
     35 C           4.9544   -3.1029    0.0000 C.2     1  UNL1        0.1727
     36 C           4.3116   -3.8689    0.0000 C.3     1  UNL1        0.0167
     37 C          11.6737   -1.9181    0.0000 C.2     1  UNL1        0.1727
     38 C          12.6585   -2.0917    0.0000 C.3     1  UNL1        0.0167
     39 C           2.3007   -0.8762    0.0000 C.3     1  UNL1       -0.0327
     40 C           6.4219    4.8086    0.0000 C.3     1  UNL1       -0.0556
     41 C           5.5559    3.3086    0.0000 C.3     1  UNL1       -0.0556
     42 C          12.2752    1.4934    0.0000 C.3     1  UNL1       -0.0327
     43 C           4.6536   -4.8086    0.0000 C.3     1  UNL1       -0.0556
     44 C           3.3268   -3.6953    0.0000 C.3     1  UNL1       -0.0556
     45 C          13.0005   -3.0314    0.0000 C.3     1  UNL1       -0.0556
     46 C          13.3013   -1.3257    0.0000 C.3     1  UNL1       -0.0556
     47 C           6.5820   -2.5105    0.0000 C.3     1  UNL1        0.0788
     48 C           2.0000   -2.5820    0.0000 C.3     1  UNL1        0.0788
     49 C          13.6020    0.3801    0.0000 C.3     1  UNL1        0.0788
     50 H           5.4839    0.9244    0.0000 H       1  UNL1        0.0366
     51 H           5.9545   -0.1663    0.0000 H       1  UNL1        0.0366
     52 H           8.5227   -0.0616    0.0000 H       1  UNL1        0.0366
     53 H           9.2321    0.8912    0.0000 H       1  UNL1        0.0366
     54 H           6.4219    3.1886    0.0000 H       1  UNL1        0.0375
     55 H           4.0995   -3.2863    0.0000 H       1  UNL1        0.0375
     56 H          12.4464   -1.5091    0.0000 H       1  UNL1        0.0375
     57 H           2.4084   -0.2656    0.0000 H       1  UNL1        0.0280
     58 H           1.6902   -0.7686    0.0000 H       1  UNL1        0.0280
     59 H           2.1931   -1.4868    0.0000 H       1  UNL1        0.0280
     60 H           5.2459    3.8455    0.0000 H       1  UNL1        0.0236
     61 H           5.0190    2.9986    0.0000 H       1  UNL1        0.0236
     62 H           5.8659    2.7717    0.0000 H       1  UNL1        0.0236
     63 H           7.0419    4.8086    0.0000 H       1  UNL1        0.0236
     64 H           6.4219    5.4286    0.0000 H       1  UNL1        0.0236
     65 H           5.8019    4.8086    0.0000 H       1  UNL1        0.0236
     66 H           7.8249   -1.0014    0.0000 H       1  UNL1        0.2922
     67 H          12.7501    1.0949    0.0000 H       1  UNL1        0.0280
     68 H          12.6737    1.9684    0.0000 H       1  UNL1        0.0280
     69 H          11.8003    1.8919    0.0000 H       1  UNL1        0.0280
     70 H           5.0190    1.9986    0.0000 H       1  UNL1        0.2922
     71 H           9.5570    1.9986    0.0000 H       1  UNL1        0.2922
     72 H           4.0710   -5.0207    0.0000 H       1  UNL1        0.0236
     73 H           4.8657   -5.3912    0.0000 H       1  UNL1        0.0236
     74 H           5.2362   -4.5966    0.0000 H       1  UNL1        0.0236
     75 H           3.4344   -3.0847    0.0000 H       1  UNL1        0.0236
     76 H           2.7162   -3.5876    0.0000 H       1  UNL1        0.0236
     77 H           3.2191   -4.3059    0.0000 H       1  UNL1        0.0236
     78 H          13.7762   -1.7242    0.0000 H       1  UNL1        0.0236
     79 H          13.6998   -0.8507    0.0000 H       1  UNL1        0.0236
     80 H          12.8263   -0.9272    0.0000 H       1  UNL1        0.0236
     81 H          12.4179   -3.2435    0.0000 H       1  UNL1        0.0236
     82 H          13.2125   -3.6140    0.0000 H       1  UNL1        0.0236
     83 H          13.5831   -2.8194    0.0000 H       1  UNL1        0.0236
     84 H           2.9757    0.7636    0.0000 H       1  UNL1        0.2922
     85 H           9.9161   -2.1534    0.0000 H       1  UNL1        0.2922
     86 H          10.7041    2.3156    0.0000 H       1  UNL1        0.2922
     87 H           5.9994   -2.7225    0.0000 H       1  UNL1        0.0660
     88 H           6.7940   -3.0931    0.0000 H       1  UNL1        0.0660
     89 H           7.1646   -2.2984    0.0000 H       1  UNL1        0.0660
     90 H           2.1077   -1.9714    0.0000 H       1  UNL1        0.0660
     91 H           1.3894   -2.4743    0.0000 H       1  UNL1        0.0660
     92 H           1.8923   -3.1926    0.0000 H       1  UNL1        0.0660
     93 H          14.0770   -0.0185    0.0000 H       1  UNL1        0.0660
     94 H          14.0006    0.8550    0.0000 H       1  UNL1        0.0660
     95 H          13.1271    0.7786    0.0000 H       1  UNL1        0.0660
@<TRIPOS>BOND
     1     1    17    1
     2     1    66    1
     3     2    20    1
     4     2    70    1
     5     3    22    1
     6     3    71    1
     7     4    23    1
     8     4    47    1
     9     5    32    1
    10     5    48    1
    11     6    25    1
    12     6    84    1
    13     7    26    1
    14     7    85    1
    15     8    29    1
    16     8    86    1
    17     9    34    1
    18     9    49    1
    19    10    27    2
    20    11    35    2
    21    12    37    2
    22    13    15    1
    23    13    17   ar
    24    13    20   ar
    25    14    16    1
    26    14    17   ar
    27    14    22   ar
    28    15    18    1
    29    15    50    1
    30    15    51    1
    31    16    21    1
    32    16    52    1
    33    16    53    1
    34    18    23   ar
    35    18    25   ar
    36    19    20   ar
    37    19    22   ar
    38    19    27    1
    39    21    26   ar
    40    21    29   ar
    41    23    24   ar
    42    24    32   ar
    43    24    35    1
    44    25    30   ar
    45    26    28   ar
    46    27    31    1
    47    28    34   ar
    48    28    37    1
    49    29    33   ar
    50    30    32   ar
    51    30    39    1
    52    31    40    1
    53    31    41    1
    54    31    54    1
    55    33    34   ar
    56    33    42    1
    57    35    36    1
    58    36    43    1
    59    36    44    1
    60    36    55    1
    61    37    38    1
    62    38    45    1
    63    38    46    1
    64    38    56    1
    65    39    57    1
    66    39    58    1
    67    39    59    1
    68    40    63    1
    69    40    64    1
    70    40    65    1
    71    41    60    1
    72    41    61    1
    73    41    62    1
    74    42    67    1
    75    42    68    1
    76    42    69    1
    77    43    72    1
    78    43    73    1
    79    43    74    1
    80    44    75    1
    81    44    76    1
    82    44    77    1
    83    45    81    1
    84    45    82    1
    85    45    83    1
    86    46    78    1
    87    46    79    1
    88    46    80    1
    89    47    87    1
    90    47    88    1
    91    47    89    1
    92    48    90    1
    93    48    91    1
    94    48    92    1
    95    49    93    1
    96    49    94    1
    97    49    95    1
