@<TRIPOS>MOLECULE
IMPHY005706
 17 17 0 0 0
SMALL
GASTEIGER

@<TRIPOS>ATOM
      1 O           5.1350    1.4400    0.0000 O.3     1  UNL1       -0.4771
      2 O           3.4030    1.4400    0.0000 O.2     1  UNL1       -0.2451
      3 N           2.5369   -0.0600    0.0000 N.pl3   1  UNL1       -0.3573
      4 C           4.2690   -0.0600    0.0000 C.ar    1  UNL1        0.0794
      5 C           3.4030   -0.5600    0.0000 C.ar    1  UNL1        0.0387
      6 C           5.1350   -0.5600    0.0000 C.ar    1  UNL1       -0.0460
      7 C           3.4030   -1.5600    0.0000 C.ar    1  UNL1       -0.0402
      8 C           5.1350   -1.5600    0.0000 C.ar    1  UNL1       -0.0609
      9 C           4.2690   -2.0600    0.0000 C.ar    1  UNL1       -0.0600
     10 C           4.2690    0.9400    0.0000 C.2     1  UNL1        0.3386
     11 H           5.6720   -0.2500    0.0000 H       1  UNL1        0.0626
     12 H           2.8660   -1.8700    0.0000 H       1  UNL1        0.0636
     13 H           5.6720   -1.8700    0.0000 H       1  UNL1        0.0618
     14 H           4.2690   -2.6800    0.0000 H       1  UNL1        0.0618
     15 H           2.0000   -0.3700    0.0000 H       1  UNL1        0.1423
     16 H           2.5369    0.5600    0.0000 H       1  UNL1        0.1423
     17 H           5.1350    2.0600    0.0000 H       1  UNL1        0.2954
@<TRIPOS>BOND
     1     1    10    1
     2     1    17    1
     3     2    10    2
     4     3     5    1
     5     3    15    1
     6     3    16    1
     7     4     5   ar
     8     4     6   ar
     9     4    10    1
    10     5     7   ar
    11     6     8   ar
    12     6    11    1
    13     7     9   ar
    14     7    12    1
    15     8     9   ar
    16     8    13    1
    17     9    14    1
