@<TRIPOS>MOLECULE
IMPHY011094
 53 55 0 0 0
SMALL
GASTEIGER

@<TRIPOS>ATOM
      1 O           6.6385   -1.0837    0.0000 O.3     1  UNL1       -0.4601
      2 O           6.0055    2.1248    0.0000 O.3     1  UNL1       -0.4536
      3 O           5.5413   -2.5711    0.0000 O.3     1  UNL1       -0.3910
      4 O           2.3784   -1.0480    0.0000 O.3     1  UNL1       -0.3914
      5 O           4.0218    2.1975    0.0000 O.3     1  UNL1       -0.4575
      6 O           7.7453    2.4830    0.0000 O.2     1  UNL1       -0.2453
      7 O           8.3362   -0.7405    0.0000 O.2     1  UNL1       -0.2512
      8 O           2.4613    1.4460    0.0000 O.2     1  UNL1       -0.2512
      9 C           4.9557   -0.8941    0.0000 C.3     1  UNL1        0.0371
     10 C           4.0547   -0.4602    0.0000 C.3     1  UNL1        0.0023
     11 C           5.8566   -0.4602    0.0000 C.3     1  UNL1        0.1215
     12 C           3.8322    0.5147    0.0000 C.3     1  UNL1        0.0028
     13 C           4.8197   -1.8788    0.0000 C.3     1  UNL1        0.0667
     14 C           3.3696   -1.1805    0.0000 C.3     1  UNL1        0.0615
     15 C           6.0792    0.5147    0.0000 C.3     1  UNL1        0.0685
     16 C           3.8414   -2.0555    0.0000 C.3     1  UNL1        0.0002
     17 C           4.4557    1.2965    0.0000 C.3     1  UNL1        0.1433
     18 C           5.4557    1.2965    0.0000 C.3     1  UNL1        0.1506
     19 C           5.8566   -1.3280    0.0000 C.3     1  UNL1       -0.0534
     20 C           2.8573    0.7372    0.0000 C.3     1  UNL1       -0.0586
     21 C           7.0089    0.8664    0.0000 C.2     1  UNL1        0.0398
     22 C           6.9635    1.8595    0.0000 C.2     1  UNL1        0.3355
     23 C           8.0022    0.9826    0.0000 C.2     1  UNL1       -0.0882
     24 C           7.5864   -1.4022    0.0000 C.2     1  UNL1        0.3042
     25 C           3.0246    2.2722    0.0000 C.2     1  UNL1        0.3043
     26 C           7.7846   -2.3824    0.0000 C.3     1  UNL1        0.0332
     27 C           2.5907    3.1732    0.0000 C.3     1  UNL1        0.0332
     28 H           3.2350   -0.2351    0.0000 H       1  UNL1        0.0337
     29 H           6.4418   -0.2554    0.0000 H       1  UNL1        0.0748
     30 H           3.6274    1.0999    0.0000 H       1  UNL1        0.0339
     31 H           4.6406   -2.4724    0.0000 H       1  UNL1        0.0601
     32 H           3.0172   -1.6906    0.0000 H       1  UNL1        0.0597
     33 H           6.7200   -0.0437    0.0000 H       1  UNL1        0.0425
     34 H           3.2678   -2.2908    0.0000 H       1  UNL1        0.0315
     35 H           4.0151   -2.6507    0.0000 H       1  UNL1        0.0315
     36 H           4.7855    1.8215    0.0000 H       1  UNL1        0.0774
     37 H           6.3049    1.3336    0.0000 H       1  UNL1        0.0779
     38 H           5.5876   -1.8866    0.0000 H       1  UNL1        0.0237
     39 H           6.4152   -1.5970    0.0000 H       1  UNL1        0.0237
     40 H           6.1256   -0.7694    0.0000 H       1  UNL1        0.0237
     41 H           2.9952    1.3417    0.0000 H       1  UNL1        0.0234
     42 H           2.2528    0.8752    0.0000 H       1  UNL1        0.0234
     43 H           2.7193    0.1328    0.0000 H       1  UNL1        0.0234
     44 H           5.3932   -3.1732    0.0000 H       1  UNL1        0.2098
     45 H           2.0000   -1.5391    0.0000 H       1  UNL1        0.2098
     46 H           8.3724    0.4853    0.0000 H       1  UNL1        0.0540
     47 H           8.2477    1.5519    0.0000 H       1  UNL1        0.0540
     48 H           7.1768   -2.5052    0.0000 H       1  UNL1        0.0342
     49 H           7.9074   -2.9901    0.0000 H       1  UNL1        0.0342
     50 H           8.3922   -2.2595    0.0000 H       1  UNL1        0.0342
     51 H           3.1493    3.4422    0.0000 H       1  UNL1        0.0342
     52 H           2.3217    3.7318    0.0000 H       1  UNL1        0.0342
     53 H           2.0321    2.9042    0.0000 H       1  UNL1        0.0342
@<TRIPOS>BOND
     1    11     1    1
     2     1    24    1
     3     2    18    1
     4     2    22    1
     5    13     3    1
     6     3    44    1
     7    14     4    1
     8     4    45    1
     9    17     5    1
    10     5    25    1
    11     6    22    2
    12     7    24    2
    13     8    25    2
    14     9    10    1
    15     9    11    1
    16     9    13    1
    17     9    19    1
    18    10    12    1
    19    10    14    1
    20    10    28    1
    21    11    15    1
    22    11    29    1
    23    12    17    1
    24    12    20    1
    25    12    30    1
    26    13    16    1
    27    13    31    1
    28    14    16    1
    29    14    32    1
    30    15    18    1
    31    15    21    1
    32    15    33    1
    33    16    34    1
    34    16    35    1
    35    17    18    1
    36    17    36    1
    37    18    37    1
    38    19    38    1
    39    19    39    1
    40    19    40    1
    41    20    41    1
    42    20    42    1
    43    20    43    1
    44    21    22    1
    45    21    23    2
    46    23    46    1
    47    23    47    1
    48    24    26    1
    49    25    27    1
    50    26    48    1
    51    26    49    1
    52    26    50    1
    53    27    51    1
    54    27    52    1
    55    27    53    1
