@<TRIPOS>MOLECULE
IMPHY010137
 52 55 0 0 0
SMALL
GASTEIGER

@<TRIPOS>ATOM
      1 O           7.6967    0.4704    0.0000 O.3     1  UNL1       -0.3815
      2 O           5.0109   -0.7512    0.0000 O.2     1  UNL1       -0.2957
      3 O           7.6967    1.4704    0.0000 O.3     1  UNL1       -0.3845
      4 O           8.5462   -0.4904    0.0000 O.3     1  UNL1       -0.3845
      5 C           3.3665    0.9704    0.0000 C.3     1  UNL1       -0.0193
      6 C           3.3665   -0.0296    0.0000 C.3     1  UNL1       -0.0311
      7 C           2.5000    0.4704    0.0000 C.3     1  UNL1       -0.0277
      8 C           4.2326    1.4704    0.0000 C.3     1  UNL1        0.0404
      9 C           4.2326   -0.5296    0.0000 C.3     1  UNL1       -0.0455
     10 C           5.9646   -0.5296    0.0000 C.3     1  UNL1        0.0845
     11 C           5.0986   -0.0296    0.0000 C.3     1  UNL1       -0.0249
     12 C           6.8306   -0.0296    0.0000 C.3     1  UNL1        0.1408
     13 C           4.8219    0.2308    0.0000 C.2     1  UNL1        0.1534
     14 C           2.0000   -0.3956    0.0000 C.3     1  UNL1       -0.0593
     15 C           2.0000    1.3365    0.0000 C.3     1  UNL1       -0.0593
     16 C           5.0986    0.9704    0.0000 C.2     1  UNL1       -0.0720
     17 C           6.1738   -1.5014    0.0000 C.2     1  UNL1       -0.0662
     18 C           6.8306    0.9704    0.0000 C.3     1  UNL1        0.1086
     19 C           7.5676   -0.6966    0.0000 C.3     1  UNL1        0.1086
     20 C           5.9646    0.4704    0.0000 C.3     1  UNL1       -0.0611
     21 C           5.9646    1.4704    0.0000 C.2     1  UNL1       -0.0449
     22 C           7.1625   -1.6044    0.0000 C.2     1  UNL1       -0.0446
     23 C           5.9646    2.4704    0.0000 C.3     1  UNL1       -0.0413
     24 C           7.6625   -2.4704    0.0000 C.3     1  UNL1       -0.0412
     25 H           2.9415    1.7066    0.0000 H       1  UNL1        0.0319
     26 H           3.3665   -0.8796    0.0000 H       1  UNL1        0.0309
     27 H           4.0719    2.3051    0.0000 H       1  UNL1        0.0423
     28 H           3.8340   -1.0045    0.0000 H       1  UNL1        0.0271
     29 H           4.6311   -1.0045    0.0000 H       1  UNL1        0.0271
     30 H           4.7886    0.5074    0.0000 H       1  UNL1        0.0312
     31 H           1.4631   -0.0856    0.0000 H       1  UNL1        0.0235
     32 H           1.6900   -0.9325    0.0000 H       1  UNL1        0.0235
     33 H           2.5369   -0.7056    0.0000 H       1  UNL1        0.0235
     34 H           2.5369    1.6465    0.0000 H       1  UNL1        0.0235
     35 H           1.6900    1.8734    0.0000 H       1  UNL1        0.0235
     36 H           1.4631    1.0265    0.0000 H       1  UNL1        0.0235
     37 H           5.0986    0.3504    0.0000 H       1  UNL1        0.0579
     38 H           5.7598   -1.9628    0.0000 H       1  UNL1        0.0583
     39 H           6.8306    1.5904    0.0000 H       1  UNL1        0.0670
     40 H           7.9572   -1.1790    0.0000 H       1  UNL1        0.0670
     41 H           6.2746   -0.0665    0.0000 H       1  UNL1        0.0233
     42 H           6.5016    0.7804    0.0000 H       1  UNL1        0.0233
     43 H           5.6546    1.0074    0.0000 H       1  UNL1        0.0233
     44 H           8.2336    0.1604    0.0000 H       1  UNL1        0.2105
     45 H           6.5846    2.4704    0.0000 H       1  UNL1        0.0275
     46 H           5.9646    3.0904    0.0000 H       1  UNL1        0.0275
     47 H           5.3446    2.4704    0.0000 H       1  UNL1        0.0275
     48 H           7.1256   -2.7804    0.0000 H       1  UNL1        0.0275
     49 H           7.9725   -3.0074    0.0000 H       1  UNL1        0.0275
     50 H           8.1995   -2.1604    0.0000 H       1  UNL1        0.0275
     51 H           7.6967    2.0904    0.0000 H       1  UNL1        0.2103
     52 H           8.9602   -0.9519    0.0000 H       1  UNL1        0.2103
@<TRIPOS>BOND
     1    12     1    1
     2     1    44    1
     3     2    13    2
     4    18     3    1
     5     3    51    1
     6    19     4    1
     7     4    52    1
     8     5     6    1
     9     5     7    1
    10     5     8    1
    11     5    25    1
    12     6     7    1
    13     6     9    1
    14     6    26    1
    15     7    14    1
    16     7    15    1
    17     8    13    1
    18     8    16    1
    19     8    27    1
    20     9    11    1
    21     9    28    1
    22     9    29    1
    23    10    11    1
    24    10    12    1
    25    10    13    1
    26    10    17    1
    27    11    20    1
    28    11    30    1
    29    12    18    1
    30    12    19    1
    31    14    31    1
    32    14    32    1
    33    14    33    1
    34    15    34    1
    35    15    35    1
    36    15    36    1
    37    16    21    2
    38    16    37    1
    39    17    22    2
    40    17    38    1
    41    18    21    1
    42    18    39    1
    43    19    22    1
    44    19    40    1
    45    20    41    1
    46    20    42    1
    47    20    43    1
    48    21    23    1
    49    22    24    1
    50    23    45    1
    51    23    46    1
    52    23    47    1
    53    24    48    1
    54    24    49    1
    55    24    50    1
