@<TRIPOS>MOLECULE
IMPHY004845
 70 75 0 0 0
SMALL
GASTEIGER

@<TRIPOS>ATOM
      1 O           6.7942   -2.0968    0.0000 O.3     1  UNL1       -0.4811
      2 O           9.5801    0.6877    0.0000 O.3     1  UNL1       -0.4808
      3 O           5.8505    0.3751    0.0000 O.3     1  UNL1       -0.3868
      4 O          11.3503    2.7465    0.0000 O.3     1  UNL1       -0.3875
      5 O           5.9541    1.2224    0.0000 O.3     1  UNL1       -0.5062
      6 O           7.8201    3.7224    0.0000 O.3     1  UNL1       -0.5063
      7 O           9.9024   -0.1351    0.0000 O.3     1  UNL1       -0.5062
      8 O          10.1030   -3.3268    0.0000 O.3     1  UNL1       -0.5065
      9 O           2.8961   -0.1459    0.0000 O.3     1  UNL1       -0.5032
     10 O           3.4977   -3.5574    0.0000 O.3     1  UNL1       -0.5032
     11 O           2.2120   -2.0253    0.0000 O.3     1  UNL1       -0.5009
     12 O          13.9502    1.1882    0.0000 O.3     1  UNL1       -0.5032
     13 O          12.2066   -1.8051    0.0000 O.3     1  UNL1       -0.5032
     14 O          13.9425   -0.8118    0.0000 O.3     1  UNL1       -0.5009
     15 C           7.4782   -0.2174    0.0000 C.3     1  UNL1        0.0528
     16 C           6.4933   -0.3910    0.0000 C.3     1  UNL1        0.1074
     17 C           7.8201    0.7224    0.0000 C.ar    1  UNL1        0.0463
     18 C           6.1513   -1.3307    0.0000 C.3     1  UNL1        0.1520
     19 C           8.1209   -0.9834    0.0000 C.ar    1  UNL1        0.0461
     20 C           8.6862    1.2224    0.0000 C.ar    1  UNL1        0.1355
     21 C           8.6862    2.2224    0.0000 C.ar    1  UNL1        0.0387
     22 C          10.4862    2.2432    0.0000 C.3     1  UNL1        0.1004
     23 C          10.4862    1.2015    0.0000 C.3     1  UNL1        0.1514
     24 C           9.5801    2.7570    0.0000 C.3     1  UNL1        0.0092
     25 C           7.7789   -1.9231    0.0000 C.ar    1  UNL1        0.1323
     26 C           6.9541    1.2224    0.0000 C.ar    1  UNL1        0.1277
     27 C           5.1665   -1.5044    0.0000 C.ar    1  UNL1        0.0023
     28 C           7.8201    2.7224    0.0000 C.ar    1  UNL1        0.1271
     29 C           9.1438   -0.7867    0.0000 C.ar    1  UNL1        0.1276
     30 C           6.9541    2.2224    0.0000 C.ar    1  UNL1        0.0221
     31 C          11.3503    0.6982    0.0000 C.ar    1  UNL1        0.0023
     32 C           8.4360   -2.7312    0.0000 C.ar    1  UNL1        0.0221
     33 C           9.8195   -1.5795    0.0000 C.ar    1  UNL1        0.0218
     34 C           4.8245   -2.4441    0.0000 C.ar    1  UNL1       -0.0095
     35 C           4.5237   -0.7383    0.0000 C.ar    1  UNL1       -0.0095
     36 C           9.4632   -2.5583    0.0000 C.ar    1  UNL1        0.1238
     37 C          11.3464   -0.3018    0.0000 C.ar    1  UNL1       -0.0095
     38 C          12.2182    1.1949    0.0000 C.ar    1  UNL1       -0.0095
     39 C           3.5389   -0.9119    0.0000 C.ar    1  UNL1        0.1623
     40 C           3.8397   -2.6177    0.0000 C.ar    1  UNL1        0.1623
     41 C           3.1969   -1.8516    0.0000 C.ar    1  UNL1        0.2006
     42 C          13.0823    0.6915    0.0000 C.ar    1  UNL1        0.1623
     43 C          12.2105   -0.8051    0.0000 C.ar    1  UNL1        0.1623
     44 C          13.0784   -0.3085    0.0000 C.ar    1  UNL1        0.2006
     45 H           6.9318    0.4337    0.0000 H       1  UNL1        0.0429
     46 H           5.8827   -0.4987    0.0000 H       1  UNL1        0.0643
     47 H           5.9393   -1.9133    0.0000 H       1  UNL1        0.0811
     48 H          11.0237    1.9342    0.0000 H       1  UNL1        0.0637
     49 H          11.0237    1.5105    0.0000 H       1  UNL1        0.0811
     50 H           9.9737    3.2360    0.0000 H       1  UNL1        0.0342
     51 H           9.1755    3.2268    0.0000 H       1  UNL1        0.0342
     52 H           6.4172    2.5324    0.0000 H       1  UNL1        0.0691
     53 H           5.2399    0.2674    0.0000 H       1  UNL1        0.2100
     54 H           8.2173   -3.3114    0.0000 H       1  UNL1        0.0691
     55 H          10.4296   -1.4694    0.0000 H       1  UNL1        0.0691
     56 H           5.2230   -2.9190    0.0000 H       1  UNL1        0.0659
     57 H           4.7357   -0.1557    0.0000 H       1  UNL1        0.0659
     58 H          11.3479    3.3665    0.0000 H       1  UNL1        0.2100
     59 H          10.8083   -0.6097    0.0000 H       1  UNL1        0.0659
     60 H          12.2206    1.8148    0.0000 H       1  UNL1        0.0659
     61 H           5.6441    1.7594    0.0000 H       1  UNL1        0.2921
     62 H           7.2832    4.0324    0.0000 H       1  UNL1        0.2921
     63 H          10.4874   -0.3404    0.0000 H       1  UNL1        0.2921
     64 H           9.8887   -3.9086    0.0000 H       1  UNL1        0.2921
     65 H           2.2855   -0.2535    0.0000 H       1  UNL1        0.2923
     66 H           3.8962   -4.0324    0.0000 H       1  UNL1        0.2923
     67 H           2.0000   -2.6079    0.0000 H       1  UNL1        0.2924
     68 H          13.9526    1.8082    0.0000 H       1  UNL1        0.2923
     69 H          12.7424   -2.1172    0.0000 H       1  UNL1        0.2923
     70 H          14.4807   -0.5039    0.0000 H       1  UNL1        0.2924
@<TRIPOS>BOND
     1     1    18    1
     2     1    25    1
     3     2    20    1
     4     2    23    1
     5    16     3    1
     6     3    53    1
     7    22     4    1
     8     4    58    1
     9     5    26    1
    10     5    61    1
    11     6    28    1
    12     6    62    1
    13     7    29    1
    14     7    63    1
    15     8    36    1
    16     8    64    1
    17     9    39    1
    18     9    65    1
    19    10    40    1
    20    10    66    1
    21    11    41    1
    22    11    67    1
    23    12    42    1
    24    12    68    1
    25    13    43    1
    26    13    69    1
    27    14    44    1
    28    14    70    1
    29    15    16    1
    30    15    17    1
    31    15    19    1
    32    15    45    1
    33    16    18    1
    34    16    46    1
    35    17    20   ar
    36    17    26   ar
    37    18    27    1
    38    18    47    1
    39    19    25   ar
    40    19    29   ar
    41    20    21   ar
    42    21    24    1
    43    21    28   ar
    44    22    23    1
    45    22    24    1
    46    22    48    1
    47    23    31    1
    48    23    49    1
    49    24    50    1
    50    24    51    1
    51    25    32   ar
    52    26    30   ar
    53    27    34   ar
    54    27    35   ar
    55    28    30   ar
    56    29    33   ar
    57    30    52    1
    58    31    37   ar
    59    31    38   ar
    60    32    36   ar
    61    32    54    1
    62    33    36   ar
    63    33    55    1
    64    34    40   ar
    65    34    56    1
    66    35    39   ar
    67    35    57    1
    68    37    43   ar
    69    37    59    1
    70    38    42   ar
    71    38    60    1
    72    39    41   ar
    73    40    41   ar
    74    42    44   ar
    75    43    44   ar
