@<TRIPOS>MOLECULE
IMPHY007694
 47 49 0 0 0
SMALL
GASTEIGER

@<TRIPOS>ATOM
      1 O           6.0290   -1.0584    0.0000 O.2     1  UNL1       -0.4582
      2 O           4.2690   -2.0238    0.0000 O.3     1  UNL1       -0.4885
      3 O          10.3914    2.5104    0.0000 O.3     1  UNL1       -0.4880
      4 O           4.2690    1.9762    0.0000 O.3     1  UNL1       -0.5058
      5 O           6.0174    2.0108    0.0000 O.2     1  UNL1       -0.2863
      6 O           2.5369   -1.0238    0.0000 O.3     1  UNL1       -0.5031
      7 C           5.1350    0.4762    0.0000 C.ar    1  UNL1        0.1097
      8 C           6.9350    0.4971    0.0000 C.ar    1  UNL1        0.0644
      9 C           5.1350   -0.5238    0.0000 C.ar    1  UNL1        0.1870
     10 C           6.0290    1.0109    0.0000 C.ar    1  UNL1        0.2038
     11 C           7.7991    1.0004    0.0000 C.ar    1  UNL1       -0.0110
     12 C           4.2690   -1.0238    0.0000 C.ar    1  UNL1        0.2049
     13 C           4.2690    0.9762    0.0000 C.ar    1  UNL1        0.1349
     14 C           6.9350   -0.5446    0.0000 C.ar    1  UNL1        0.1040
     15 C           3.4030   -0.5238    0.0000 C.ar    1  UNL1        0.1657
     16 C           3.4030    0.4762    0.0000 C.ar    1  UNL1        0.0259
     17 C           8.6671    0.5037    0.0000 C.ar    1  UNL1       -0.0504
     18 C           7.7953    2.0004    0.0000 C.ar    1  UNL1       -0.0504
     19 C           9.5273    2.0071    0.0000 C.ar    1  UNL1        0.1210
     20 C           9.5312    1.0071    0.0000 C.ar    1  UNL1       -0.0193
     21 C           8.6594    2.5037    0.0000 C.ar    1  UNL1       -0.0193
     22 C          11.2593    2.0137    0.0000 C.3     1  UNL1        0.1080
     23 C          12.1234    2.5171    0.0000 C.2     1  UNL1       -0.0484
     24 C          12.9914    2.0204    0.0000 C.2     1  UNL1       -0.0765
     25 C           3.4030   -2.5238    0.0000 C.3     1  UNL1        0.0791
     26 C          13.8555    2.5238    0.0000 C.3     1  UNL1       -0.0439
     27 C          12.9952    1.0204    0.0000 C.3     1  UNL1       -0.0439
     28 H           7.4708   -0.8566    0.0000 H       1  UNL1        0.1037
     29 H           2.8660    0.7862    0.0000 H       1  UNL1        0.0692
     30 H           8.6694   -0.1163    0.0000 H       1  UNL1        0.0625
     31 H           7.2571    2.3083    0.0000 H       1  UNL1        0.0625
     32 H          10.0693    0.6991    0.0000 H       1  UNL1        0.0654
     33 H           8.6570    3.1237    0.0000 H       1  UNL1        0.0654
     34 H          10.8626    1.5373    0.0000 H       1  UNL1        0.0742
     35 H          11.6597    1.5403    0.0000 H       1  UNL1        0.0742
     36 H           3.7320    2.2862    0.0000 H       1  UNL1        0.2922
     37 H          12.1210    3.1371    0.0000 H       1  UNL1        0.0605
     38 H           2.0000   -0.7138    0.0000 H       1  UNL1        0.2923
     39 H           3.0930   -1.9868    0.0000 H       1  UNL1        0.0660
     40 H           2.8660   -2.8338    0.0000 H       1  UNL1        0.0660
     41 H           3.7130   -3.0607    0.0000 H       1  UNL1        0.0660
     42 H          14.1675    1.9880    0.0000 H       1  UNL1        0.0274
     43 H          12.3752    1.0180    0.0000 H       1  UNL1        0.0274
     44 H          12.9976    0.4004    0.0000 H       1  UNL1        0.0274
     45 H          13.6152    1.0228    0.0000 H       1  UNL1        0.0274
     46 H          14.3912    2.8358    0.0000 H       1  UNL1        0.0274
     47 H          13.5434    3.0595    0.0000 H       1  UNL1        0.0274
@<TRIPOS>BOND
     1     1     9   ar
     2     1    14   ar
     3     2    12    1
     4     2    25    1
     5     3    19    1
     6     3    22    1
     7     4    13    1
     8     4    36    1
     9     5    10    2
    10     6    15    1
    11     6    38    1
    12     7     9   ar
    13     7    10   ar
    14     7    13   ar
    15     8    10   ar
    16     8    11    1
    17     8    14   ar
    18     9    12   ar
    19    11    17   ar
    20    11    18   ar
    21    12    15   ar
    22    13    16   ar
    23    14    28    1
    24    15    16   ar
    25    16    29    1
    26    17    20   ar
    27    17    30    1
    28    18    21   ar
    29    18    31    1
    30    19    20   ar
    31    19    21   ar
    32    20    32    1
    33    21    33    1
    34    22    23    1
    35    22    34    1
    36    22    35    1
    37    23    24    2
    38    23    37    1
    39    24    26    1
    40    24    27    1
    41    25    39    1
    42    25    40    1
    43    25    41    1
    44    26    42    1
    45    26    46    1
    46    26    47    1
    47    27    43    1
    48    27    44    1
    49    27    45    1
