@<TRIPOS>MOLECULE
IMPHY007261
 11 11 0 0 0
SMALL
GASTEIGER

@<TRIPOS>ATOM
      1 O           3.7601   -0.7694    0.0000 O.3     1  UNL1       -0.4233
      2 O           2.0000   -0.4907    0.0000 O.2     1  UNL1       -0.2452
      3 C           4.5691   -0.1816    0.0000 C.2     1  UNL1        0.1251
      4 C           4.2601    0.7694    0.0000 C.2     1  UNL1       -0.0130
      5 C           3.2601    0.7694    0.0000 C.2     1  UNL1        0.0264
      6 C           2.9511   -0.1816    0.0000 C.2     1  UNL1        0.3373
      7 C           5.5202   -0.4907    0.0000 C.2     1  UNL1       -0.0560
      8 H           4.6245    1.2710    0.0000 H       1  UNL1        0.0656
      9 H           2.8956    1.2710    0.0000 H       1  UNL1        0.0690
     10 H           5.6490   -1.0971    0.0000 H       1  UNL1        0.0571
     11 H           5.9809   -0.0758    0.0000 H       1  UNL1        0.0571
@<TRIPOS>BOND
     1     1     3    1
     2     1     6    1
     3     2     6    2
     4     3     4    1
     5     3     7    2
     6     4     5    2
     7     4     8    1
     8     5     6    1
     9     5     9    1
    10     7    10    1
    11     7    11    1
