@<TRIPOS>MOLECULE
IMPHY007007
 20 19 0 0 0
SMALL
GASTEIGER

@<TRIPOS>ATOM
      1 O           3.7320    0.2500    0.0000 O.3     1  UNL1       -0.4647
      2 O           4.5981   -1.2500    0.0000 O.2     1  UNL1       -0.2506
      3 C           5.4641    0.2500    0.0000 C.3     1  UNL1        0.0508
      4 C           6.3301   -0.2500    0.0000 C.3     1  UNL1       -0.0525
      5 C           5.4641    1.2500    0.0000 C.3     1  UNL1       -0.0525
      6 C           4.5981   -0.2500    0.0000 C.2     1  UNL1        0.3097
      7 C           2.8660   -0.2500    0.0000 C.3     1  UNL1        0.0897
      8 C           2.0000    0.2500    0.0000 C.3     1  UNL1       -0.0306
      9 H           5.4641   -0.3700    0.0000 H       1  UNL1        0.0408
     10 H           6.0201   -0.7869    0.0000 H       1  UNL1        0.0237
     11 H           6.8671   -0.5600    0.0000 H       1  UNL1        0.0237
     12 H           6.6401    0.2869    0.0000 H       1  UNL1        0.0237
     13 H           6.0841    1.2500    0.0000 H       1  UNL1        0.0237
     14 H           5.4641    1.8700    0.0000 H       1  UNL1        0.0237
     15 H           4.8441    1.2500    0.0000 H       1  UNL1        0.0237
     16 H           2.4675   -0.7249    0.0000 H       1  UNL1        0.0694
     17 H           3.2646   -0.7249    0.0000 H       1  UNL1        0.0694
     18 H           2.3100    0.7869    0.0000 H       1  UNL1        0.0262
     19 H           1.4631    0.5600    0.0000 H       1  UNL1        0.0262
     20 H           1.6900   -0.2869    0.0000 H       1  UNL1        0.0262
@<TRIPOS>BOND
     1     1     6    1
     2     1     7    1
     3     2     6    2
     4     3     4    1
     5     3     5    1
     6     3     6    1
     7     3     9    1
     8     4    10    1
     9     4    11    1
    10     4    12    1
    11     5    13    1
    12     5    14    1
    13     5    15    1
    14     7     8    1
    15     7    16    1
    16     7    17    1
    17     8    18    1
    18     8    19    1
    19     8    20    1
