@<TRIPOS>MOLECULE
IMPHY001568
 42 45 0 0 0
SMALL
GASTEIGER

@<TRIPOS>ATOM
      1 O           3.9061   -0.6193    0.0000 O.3     1  UNL1       -0.4814
      2 O           7.4260   -0.6193    0.0000 O.2     1  UNL1       -0.4542
      3 O           5.6660    2.4154    0.0000 O.3     1  UNL1       -0.5052
      4 O           7.4144    2.4500    0.0000 O.2     1  UNL1       -0.2869
      5 O           8.3244   -2.1054    0.0000 O.3     1  UNL1       -0.5059
      6 O          11.7884   -2.1188    0.0000 O.3     1  UNL1       -0.5066
      7 C           3.0000   -0.1054    0.0000 C.3     1  UNL1        0.1235
      8 C           4.8000    0.9154    0.0000 C.ar    1  UNL1        0.0588
      9 C           4.8000   -0.0846    0.0000 C.ar    1  UNL1        0.1359
     10 C           3.0000    0.9362    0.0000 C.2     1  UNL1       -0.0408
     11 C           3.9061    1.4501    0.0000 C.2     1  UNL1       -0.0478
     12 C           2.0000   -0.1093    0.0000 C.3     1  UNL1       -0.0215
     13 C           2.5033   -0.9734    0.0000 C.3     1  UNL1       -0.0215
     14 C           6.5320    0.9154    0.0000 C.ar    1  UNL1        0.1061
     15 C           5.6660    1.4154    0.0000 C.ar    1  UNL1        0.1418
     16 C           6.5320   -0.0846    0.0000 C.ar    1  UNL1        0.1463
     17 C           5.6660   -0.5846    0.0000 C.ar    1  UNL1        0.0240
     18 C           7.4260    1.4501    0.0000 C.ar    1  UNL1        0.1966
     19 C           8.3321   -0.1054    0.0000 C.ar    1  UNL1        0.1427
     20 C           8.3321    0.9362    0.0000 C.ar    1  UNL1        0.0289
     21 C           9.1962   -0.6088    0.0000 C.ar    1  UNL1        0.0590
     22 C           9.1923   -1.6087    0.0000 C.ar    1  UNL1        0.1310
     23 C          10.0641   -0.1121    0.0000 C.ar    1  UNL1       -0.0441
     24 C          10.0564   -2.1121    0.0000 C.ar    1  UNL1        0.0220
     25 C          10.9282   -0.6154    0.0000 C.ar    1  UNL1       -0.0193
     26 C          10.9243   -1.6154    0.0000 C.ar    1  UNL1        0.1204
     27 H           2.4643    1.2483    0.0000 H       1  UNL1        0.0611
     28 H           3.9132    2.0700    0.0000 H       1  UNL1        0.0624
     29 H           1.9976    0.5107    0.0000 H       1  UNL1        0.0271
     30 H           1.3800   -0.1117    0.0000 H       1  UNL1        0.0271
     31 H           1.9652   -0.6654    0.0000 H       1  UNL1        0.0271
     32 H           2.1954   -1.5115    0.0000 H       1  UNL1        0.0271
     33 H           3.0415   -1.2813    0.0000 H       1  UNL1        0.0271
     34 H           2.0024   -0.7293    0.0000 H       1  UNL1        0.0271
     35 H           5.6660   -1.2046    0.0000 H       1  UNL1        0.0691
     36 H           8.8678    1.2483    0.0000 H       1  UNL1        0.0693
     37 H           5.1291    2.7254    0.0000 H       1  UNL1        0.2922
     38 H          10.0665    0.5079    0.0000 H       1  UNL1        0.0627
     39 H          10.0540   -2.7321    0.0000 H       1  UNL1        0.0691
     40 H          11.4663   -0.3075    0.0000 H       1  UNL1        0.0654
     41 H           8.3220   -2.7254    0.0000 H       1  UNL1        0.2922
     42 H          12.3266   -1.8108    0.0000 H       1  UNL1        0.2921
@<TRIPOS>BOND
     1     1     7    1
     2     1     9    1
     3     2    16   ar
     4     2    19   ar
     5     3    15    1
     6     3    37    1
     7     4    18    2
     8     5    22    1
     9     5    41    1
    10     6    26    1
    11     6    42    1
    12     7    10    1
    13     7    12    1
    14     7    13    1
    15     8     9   ar
    16     8    11    1
    17     8    15   ar
    18     9    17   ar
    19    10    11    2
    20    10    27    1
    21    11    28    1
    22    12    29    1
    23    12    30    1
    24    12    34    1
    25    13    31    1
    26    13    32    1
    27    13    33    1
    28    14    15   ar
    29    14    16   ar
    30    14    18   ar
    31    16    17   ar
    32    17    35    1
    33    18    20   ar
    34    19    20   ar
    35    19    21    1
    36    20    36    1
    37    21    22   ar
    38    21    23   ar
    39    22    24   ar
    40    23    25   ar
    41    23    38    1
    42    24    26   ar
    43    24    39    1
    44    25    26   ar
    45    25    40    1
