@<TRIPOS>MOLECULE
IMPHY007297
 119 125 0 0 0
SMALL
GASTEIGER

@<TRIPOS>ATOM
      1 O           4.8406    0.1661    0.0000 O.3     1  UNL1       -0.3376
      2 O           5.9059    2.3951    0.0000 O.3     1  UNL1       -0.3840
      3 O           4.2041    1.9477    0.0000 O.3     1  UNL1       -0.4573
      4 O           3.1745   -1.2922    0.0000 O.3     1  UNL1       -0.3615
      5 O           3.3982    0.6252    0.0000 O.3     1  UNL1       -0.4573
      6 O           5.9059    3.3951    0.0000 O.3     1  UNL1       -0.4556
      7 O           4.0300   -3.0928    0.0000 O.3     1  UNL1       -0.4539
      8 O           7.6379    4.3951    0.0000 O.3     1  UNL1       -0.3876
      9 O           9.8878    4.3016    0.0000 O.3     1  UNL1       -0.3869
     10 O           5.2371    3.3380    0.0000 O.2     1  UNL1       -0.2512
     11 O           3.5844    2.3473    0.0000 O.2     1  UNL1       -0.2512
     12 O           6.7719    4.8951    0.0000 O.2     1  UNL1       -0.2505
     13 O           5.4361   -4.1042    0.0000 O.2     1  UNL1       -0.2476
     14 O           3.2732   -5.6280    0.0000 O.3     1  UNL1       -0.3777
     15 N          10.3039    1.8743    0.0000 N.3     1  UNL1       -0.2961
     16 C           6.4400    0.3203    0.0000 C.3     1  UNL1        0.0882
     17 C           5.8451   -0.5272    0.0000 C.3     1  UNL1        0.0091
     18 C           6.0349    1.2281    0.0000 C.3     1  UNL1        0.0619
     19 C           6.7719    1.8951    0.0000 C.3     1  UNL1        0.1173
     20 C           7.6379    1.3951    0.0000 C.3     1  UNL1       -0.0010
     21 C           4.8144   -0.4278    0.0000 C.3     1  UNL1        0.0652
     22 C           7.4287    0.4233    0.0000 C.3     1  UNL1       -0.0167
     23 C           4.1745   -1.2961    0.0000 C.3     1  UNL1        0.2127
     24 C           5.0068    1.3513    0.0000 C.3     1  UNL1        0.1483
     25 C           8.5039    1.8951    0.0000 C.3     1  UNL1       -0.0146
     26 C           4.3924    0.5177    0.0000 C.3     1  UNL1        0.1486
     27 C           6.3073   -1.5018    0.0000 C.3     1  UNL1       -0.0409
     28 C           6.7719    2.8951    0.0000 C.3     1  UNL1        0.1583
     29 C           8.5039    2.8951    0.0000 C.3     1  UNL1        0.0230
     30 C           4.6140   -2.2810    0.0000 C.3     1  UNL1        0.1569
     31 C           7.6379    3.3951    0.0000 C.3     1  UNL1        0.1006
     32 C           6.8405   -0.6232    0.0000 C.3     1  UNL1       -0.0564
     33 C           5.6876   -2.3845    0.0000 C.3     1  UNL1       -0.0099
     34 C           9.3979    3.4298    0.0000 C.3     1  UNL1        0.0843
     35 C           9.3979    1.3605    0.0000 C.3     1  UNL1        0.0029
     36 C          10.3039    2.9160    0.0000 C.3     1  UNL1        0.0393
     37 C           8.8879    4.2900    0.0000 C.3     1  UNL1       -0.0342
     38 C          11.2351    3.4729    0.0000 C.3     1  UNL1       -0.0344
     39 C          11.2351    1.3174    0.0000 C.3     1  UNL1        0.0019
     40 C          12.1789    1.8526    0.0000 C.3     1  UNL1       -0.0310
     41 C          12.1789    2.9376    0.0000 C.3     1  UNL1       -0.0478
     42 C           4.3192    2.9410    0.0000 C.2     1  UNL1        0.3043
     43 C           2.9942    1.5400    0.0000 C.2     1  UNL1        0.3043
     44 C           5.9059    4.3951    0.0000 C.2     1  UNL1        0.3104
     45 C           4.4411   -4.0044    0.0000 C.2     1  UNL1        0.3393
     46 C          13.0430    1.3493    0.0000 C.3     1  UNL1       -0.0613
     47 C           5.0398    4.8951    0.0000 C.3     1  UNL1        0.0534
     48 C           3.5166    3.5374    0.0000 C.3     1  UNL1        0.0332
     49 C           2.0000    1.6475    0.0000 C.3     1  UNL1        0.0332
     50 C           3.8571   -4.8162    0.0000 C.3     1  UNL1        0.1590
     51 C           5.0398    5.8951    0.0000 C.3     1  UNL1       -0.0432
     52 C           4.1738    4.3951    0.0000 C.3     1  UNL1       -0.0523
     53 C           4.6689   -5.4001    0.0000 C.3     1  UNL1       -0.0166
     54 C           3.0454   -4.2322    0.0000 C.3     1  UNL1       -0.0256
     55 C           4.1738    6.3951    0.0000 C.3     1  UNL1       -0.0645
     56 C           4.5691   -6.3951    0.0000 C.3     1  UNL1       -0.0622
     57 H           5.4439    1.8390    0.0000 H       1  UNL1        0.0396
     58 H           8.3249    0.8946    0.0000 H       1  UNL1        0.0334
     59 H           3.9683   -0.3462    0.0000 H       1  UNL1        0.0398
     60 H           7.4278   -0.1967    0.0000 H       1  UNL1        0.0297
     61 H           8.0452    0.3573    0.0000 H       1  UNL1        0.0297
     62 H           5.2362    1.9272    0.0000 H       1  UNL1        0.0776
     63 H           8.4974    1.0452    0.0000 H       1  UNL1        0.0321
     64 H           4.0274    0.0165    0.0000 H       1  UNL1        0.0776
     65 H           6.7463   -1.9395    0.0000 H       1  UNL1        0.0273
     66 H           6.8137   -1.1441    0.0000 H       1  UNL1        0.0273
     67 H           6.7719    3.5151    0.0000 H       1  UNL1        0.0790
     68 H           8.4974    3.7451    0.0000 H       1  UNL1        0.0358
     69 H           4.8700   -2.8457    0.0000 H       1  UNL1        0.0788
     70 H           7.1010    3.7051    0.0000 H       1  UNL1        0.0635
     71 H           6.7809   -1.2404    0.0000 H       1  UNL1        0.0236
     72 H           7.4576   -0.6828    0.0000 H       1  UNL1        0.0236
     73 H           6.9000   -0.0061    0.0000 H       1  UNL1        0.0236
     74 H           5.5234   -2.9824    0.0000 H       1  UNL1        0.0303
     75 H           6.2485   -2.6487    0.0000 H       1  UNL1        0.0303
     76 H           8.9933    0.8907    0.0000 H       1  UNL1        0.0430
     77 H           9.7915    0.8815    0.0000 H       1  UNL1        0.0430
     78 H           5.2859    2.3952    0.0000 H       1  UNL1        0.2103
     79 H          10.2941    3.7659    0.0000 H       1  UNL1        0.0491
     80 H           2.8624   -1.8279    0.0000 H       1  UNL1        0.2129
     81 H           9.4212    4.6062    0.0000 H       1  UNL1        0.0258
     82 H           8.5717    4.8233    0.0000 H       1  UNL1        0.0258
     83 H           8.3546    3.9738    0.0000 H       1  UNL1        0.0258
     84 H          11.6287    3.9519    0.0000 H       1  UNL1        0.0281
     85 H          10.8305    3.9427    0.0000 H       1  UNL1        0.0281
     86 H          10.8305    0.8476    0.0000 H       1  UNL1        0.0429
     87 H          11.6287    0.8384    0.0000 H       1  UNL1        0.0429
     88 H           8.1748    4.7051    0.0000 H       1  UNL1        0.2100
     89 H           9.5716    4.8349    0.0000 H       1  UNL1        0.2102
     90 H          12.1753    1.2327    0.0000 H       1  UNL1        0.0310
     91 H          12.7897    2.8316    0.0000 H       1  UNL1        0.0269
     92 H          12.3879    3.5213    0.0000 H       1  UNL1        0.0269
     93 H          12.7309    0.8136    0.0000 H       1  UNL1        0.0233
     94 H          13.5787    1.0372    0.0000 H       1  UNL1        0.0233
     95 H          13.3550    1.8850    0.0000 H       1  UNL1        0.0233
     96 H           4.5029    5.2051    0.0000 H       1  UNL1        0.0410
     97 H           3.8863    4.0351    0.0000 H       1  UNL1        0.0342
     98 H           3.0189    3.9072    0.0000 H       1  UNL1        0.0342
     99 H           3.1468    3.0398    0.0000 H       1  UNL1        0.0342
    100 H           2.0666    2.2639    0.0000 H       1  UNL1        0.0342
    101 H           1.3836    1.7142    0.0000 H       1  UNL1        0.0342
    102 H           1.9334    1.0311    0.0000 H       1  UNL1        0.0342
    103 H           5.6504    5.7875    0.0000 H       1  UNL1        0.0270
    104 H           5.2519    6.4778    0.0000 H       1  UNL1        0.0270
    105 H           3.8638    4.9321    0.0000 H       1  UNL1        0.0238
    106 H           3.6369    4.0851    0.0000 H       1  UNL1        0.0238
    107 H           4.4838    3.8582    0.0000 H       1  UNL1        0.0238
    108 H           5.2657   -5.5682    0.0000 H       1  UNL1        0.0296
    109 H           4.9381   -4.8416    0.0000 H       1  UNL1        0.0296
    110 H           3.4074   -3.7289    0.0000 H       1  UNL1        0.0263
    111 H           2.5420   -3.8702    0.0000 H       1  UNL1        0.0263
    112 H           2.6833   -4.7355    0.0000 H       1  UNL1        0.0263
    113 H           3.5280   -6.1932    0.0000 H       1  UNL1        0.2109
    114 H           4.4838    6.9321    0.0000 H       1  UNL1        0.0230
    115 H           3.6369    6.7051    0.0000 H       1  UNL1        0.0230
    116 H           3.8638    5.8582    0.0000 H       1  UNL1        0.0230
    117 H           3.9522   -6.3332    0.0000 H       1  UNL1        0.0231
    118 H           4.5072   -7.0120    0.0000 H       1  UNL1        0.0231
    119 H           5.1860   -6.4570    0.0000 H       1  UNL1        0.0231
@<TRIPOS>BOND
     1     1    16    1
     2     1    23    1
     3    19     2    1
     4     2    78    1
     5    24     3    1
     6     3    42    1
     7    23     4    1
     8     4    80    1
     9    26     5    1
    10     5    43    1
    11    28     6    1
    12     6    44    1
    13    30     7    1
    14     7    45    1
    15    31     8    1
    16     8    88    1
    17    34     9    1
    18     9    89    1
    19    10    42    2
    20    11    43    2
    21    12    44    2
    22    13    45    2
    23    50    14    1
    24    14   113    1
    25    15    35    1
    26    15    36    1
    27    15    39    1
    28    16    17    1
    29    16    18    1
    30    16    22    1
    31    17    21    1
    32    17    27    1
    33    17    32    1
    34    18    19    1
    35    18    24    1
    36    18    57    1
    37    19    20    1
    38    19    28    1
    39    20    22    1
    40    20    25    1
    41    20    58    1
    42    21    23    1
    43    21    26    1
    44    21    59    1
    45    22    60    1
    46    22    61    1
    47    23    30    1
    48    24    26    1
    49    24    62    1
    50    25    29    1
    51    25    35    1
    52    25    63    1
    53    26    64    1
    54    27    33    1
    55    27    65    1
    56    27    66    1
    57    28    31    1
    58    28    67    1
    59    29    31    1
    60    29    34    1
    61    29    68    1
    62    30    33    1
    63    30    69    1
    64    31    70    1
    65    32    71    1
    66    32    72    1
    67    32    73    1
    68    33    74    1
    69    33    75    1
    70    34    36    1
    71    34    37    1
    72    35    76    1
    73    35    77    1
    74    36    38    1
    75    36    79    1
    76    37    81    1
    77    37    82    1
    78    37    83    1
    79    38    41    1
    80    38    84    1
    81    38    85    1
    82    39    40    1
    83    39    86    1
    84    39    87    1
    85    40    41    1
    86    40    46    1
    87    40    90    1
    88    41    91    1
    89    41    92    1
    90    42    48    1
    91    43    49    1
    92    44    47    1
    93    45    50    1
    94    46    93    1
    95    46    94    1
    96    46    95    1
    97    47    51    1
    98    47    52    1
    99    47    96    1
   100    48    97    1
   101    48    98    1
   102    48    99    1
   103    49   100    1
   104    49   101    1
   105    49   102    1
   106    50    53    1
   107    50    54    1
   108    51    55    1
   109    51   103    1
   110    51   104    1
   111    52   105    1
   112    52   106    1
   113    52   107    1
   114    53    56    1
   115    53   108    1
   116    53   109    1
   117    54   110    1
   118    54   111    1
   119    54   112    1
   120    55   114    1
   121    55   115    1
   122    55   116    1
   123    56   117    1
   124    56   118    1
   125    56   119    1
