@<TRIPOS>MOLECULE
IMPHY011226
 86 90 0 0 0
SMALL
GASTEIGER

@<TRIPOS>ATOM
      1 O          10.9848    2.0947    0.0000 O.3     1  UNL1       -0.4610
      2 O          10.1130    3.5914    0.0000 O.2     1  UNL1       -0.2512
      3 C           5.6449   -1.0496    0.0000 C.3     1  UNL1       -0.0194
      4 C           6.5109   -1.5496    0.0000 C.3     1  UNL1       -0.0051
      5 C           4.7349   -1.5565    0.0000 C.3     1  UNL1       -0.0266
      6 C           4.7269   -2.5981    0.0000 C.3     1  UNL1       -0.0284
      7 C           7.3770   -0.0496    0.0000 C.3     1  UNL1       -0.0137
      8 C           8.2709    0.4850    0.0000 C.3     1  UNL1       -0.0217
      9 C           7.3770   -1.0496    0.0000 C.2     1  UNL1       -0.0634
     10 C           5.6449   -0.0496    0.0000 C.3     1  UNL1       -0.0460
     11 C           6.5270   -2.5912    0.0000 C.3     1  UNL1       -0.0429
     12 C           3.8081   -0.9924    0.0000 C.3     1  UNL1       -0.0374
     13 C           5.6290   -3.1189    0.0000 C.3     1  UNL1       -0.0465
     14 C           6.5109    0.4504    0.0000 C.3     1  UNL1       -0.0455
     15 C           9.1770   -0.0288    0.0000 C.3     1  UNL1       -0.0231
     16 C           3.7914   -3.1478    0.0000 C.3     1  UNL1       -0.0471
     17 C           4.7789   -0.5496    0.0000 C.3     1  UNL1       -0.0585
     18 C           2.8602   -1.5204    0.0000 C.3     1  UNL1       -0.0410
     19 C          10.1208    0.5064    0.0000 C.3     1  UNL1        0.0058
     20 C           7.3770   -2.0497    0.0000 C.3     1  UNL1       -0.0553
     21 C           8.2458    1.5697    0.0000 C.3     1  UNL1       -0.0434
     22 C           9.1770   -1.0705    0.0000 C.3     1  UNL1       -0.0305
     23 C           2.8518   -2.6053    0.0000 C.3     1  UNL1       -0.0497
     24 C           8.2709   -1.5843    0.0000 C.2     1  UNL1       -0.0836
     25 C           4.7192   -3.5981    0.0000 C.3     1  UNL1       -0.0593
     26 C          10.1208    1.5914    0.0000 C.3     1  UNL1        0.1084
     27 C           7.4010    0.9783    0.0000 C.3     1  UNL1       -0.0587
     28 C           9.1770    2.1266    0.0000 C.3     1  UNL1       -0.0146
     29 C           3.8273    0.0074    0.0000 C.3     1  UNL1       -0.0619
     30 C           2.0000   -1.0104    0.0000 C.3     1  UNL1       -0.0622
     31 C          11.1207    0.5026    0.0000 C.3     1  UNL1       -0.0562
     32 C          10.6174   -0.3615    0.0000 C.3     1  UNL1       -0.0562
     33 C          10.9810    3.0947    0.0000 C.2     1  UNL1        0.3042
     34 C          11.8451    3.5981    0.0000 C.3     1  UNL1        0.0332
     35 H           5.4661   -1.9900    0.0000 H       1  UNL1        0.0314
     36 H           8.1163   -0.4690    0.0000 H       1  UNL1        0.0351
     37 H           5.4329    0.5330    0.0000 H       1  UNL1        0.0271
     38 H           5.0343   -0.1573    0.0000 H       1  UNL1        0.0271
     39 H           6.7450   -3.1716    0.0000 H       1  UNL1        0.0274
     40 H           7.1361   -2.4757    0.0000 H       1  UNL1        0.0274
     41 H           4.3515   -0.6939    0.0000 H       1  UNL1        0.0304
     42 H           5.2316   -3.5949    0.0000 H       1  UNL1        0.0271
     43 H           6.0299   -3.5918    0.0000 H       1  UNL1        0.0271
     44 H           6.9095    0.9253    0.0000 H       1  UNL1        0.0271
     45 H           6.1124    0.9253    0.0000 H       1  UNL1        0.0271
     46 H           9.9114   -0.4567    0.0000 H       1  UNL1        0.0316
     47 H           3.3942   -3.6238    0.0000 H       1  UNL1        0.0271
     48 H           4.1924   -3.6207    0.0000 H       1  UNL1        0.0271
     49 H           5.0889   -0.0127    0.0000 H       1  UNL1        0.0235
     50 H           4.2420   -0.2396    0.0000 H       1  UNL1        0.0235
     51 H           4.4689   -1.0866    0.0000 H       1  UNL1        0.0235
     52 H           2.3203   -1.8252    0.0000 H       1  UNL1        0.0301
     53 H           7.0670   -2.5866    0.0000 H       1  UNL1        0.0238
     54 H           7.9139   -2.3596    0.0000 H       1  UNL1        0.0238
     55 H           7.6870   -1.5127    0.0000 H       1  UNL1        0.0238
     56 H           8.0233    2.1484    0.0000 H       1  UNL1        0.0272
     57 H           7.6376    1.4495    0.0000 H       1  UNL1        0.0272
     58 H           9.3860   -1.6542    0.0000 H       1  UNL1        0.0310
     59 H           9.7878   -0.9644    0.0000 H       1  UNL1        0.0310
     60 H           2.2418   -2.4945    0.0000 H       1  UNL1        0.0268
     61 H           2.6383   -3.1874    0.0000 H       1  UNL1        0.0268
     62 H           8.2637   -2.2043    0.0000 H       1  UNL1        0.0572
     63 H           4.0992   -3.5933    0.0000 H       1  UNL1        0.0235
     64 H           4.7144   -4.2180    0.0000 H       1  UNL1        0.0235
     65 H           5.3392   -3.6028    0.0000 H       1  UNL1        0.0235
     66 H          10.6583    1.2824    0.0000 H       1  UNL1        0.0739
     67 H           7.7069    1.5176    0.0000 H       1  UNL1        0.0235
     68 H           6.8617    1.2842    0.0000 H       1  UNL1        0.0235
     69 H           7.0952    0.4390    0.0000 H       1  UNL1        0.0235
     70 H           9.5706    2.6057    0.0000 H       1  UNL1        0.0301
     71 H           8.7724    2.5964    0.0000 H       1  UNL1        0.0301
     72 H           4.4472   -0.0045    0.0000 H       1  UNL1        0.0233
     73 H           3.8393    0.6273    0.0000 H       1  UNL1        0.0233
     74 H           3.2075    0.0194    0.0000 H       1  UNL1        0.0233
     75 H           2.3162   -0.4771    0.0000 H       1  UNL1        0.0233
     76 H           1.4667   -0.6942    0.0000 H       1  UNL1        0.0233
     77 H           1.6838   -1.5437    0.0000 H       1  UNL1        0.0233
     78 H          11.1184   -0.1174    0.0000 H       1  UNL1        0.0236
     79 H          11.7407    0.5002    0.0000 H       1  UNL1        0.0236
     80 H          11.1231    1.1226    0.0000 H       1  UNL1        0.0236
     81 H          10.0793   -0.6695    0.0000 H       1  UNL1        0.0236
     82 H          10.9253   -0.8997    0.0000 H       1  UNL1        0.0236
     83 H          11.1555   -0.0536    0.0000 H       1  UNL1        0.0236
     84 H          12.1572    3.0623    0.0000 H       1  UNL1        0.0342
     85 H          12.3808    3.9101    0.0000 H       1  UNL1        0.0342
     86 H          11.5330    4.1338    0.0000 H       1  UNL1        0.0342
@<TRIPOS>BOND
     1    26     1    1
     2     1    33    1
     3     2    33    2
     4     3     4    1
     5     3     5    1
     6     3    10    1
     7     3    17    1
     8     4     9    1
     9     4    11    1
    10     4    20    1
    11     5     6    1
    12     5    12    1
    13     5    35    1
    14     6    13    1
    15     6    16    1
    16     6    25    1
    17     7     8    1
    18     7     9    1
    19     7    14    1
    20     7    36    1
    21     8    15    1
    22     8    21    1
    23     8    27    1
    24     9    24    2
    25    10    14    1
    26    10    37    1
    27    10    38    1
    28    11    13    1
    29    11    39    1
    30    11    40    1
    31    12    18    1
    32    12    29    1
    33    12    41    1
    34    13    42    1
    35    13    43    1
    36    14    44    1
    37    14    45    1
    38    15    19    1
    39    15    22    1
    40    15    46    1
    41    16    23    1
    42    16    47    1
    43    16    48    1
    44    17    49    1
    45    17    50    1
    46    17    51    1
    47    18    23    1
    48    18    30    1
    49    18    52    1
    50    19    26    1
    51    19    31    1
    52    19    32    1
    53    20    53    1
    54    20    54    1
    55    20    55    1
    56    21    28    1
    57    21    56    1
    58    21    57    1
    59    22    24    1
    60    22    58    1
    61    22    59    1
    62    23    60    1
    63    23    61    1
    64    24    62    1
    65    25    63    1
    66    25    64    1
    67    25    65    1
    68    26    28    1
    69    26    66    1
    70    27    67    1
    71    27    68    1
    72    27    69    1
    73    28    70    1
    74    28    71    1
    75    29    72    1
    76    29    73    1
    77    29    74    1
    78    30    75    1
    79    30    76    1
    80    30    77    1
    81    31    78    1
    82    31    79    1
    83    31    80    1
    84    32    81    1
    85    32    82    1
    86    32    83    1
    87    33    34    1
    88    34    84    1
    89    34    85    1
    90    34    86    1
