@<TRIPOS>MOLECULE
IMPHY015795
 42 44 0 0 0
SMALL
GASTEIGER

@<TRIPOS>ATOM
      1 O           5.2304   -0.1982    0.0000 O.3     1  UNL1       -0.3667
      2 C           4.3066   -0.5808    0.0000 C.3     1  UNL1        0.0762
      3 C           3.3827   -0.1982    0.0000 C.3     1  UNL1       -0.0090
      4 C           4.4303    0.6745    0.0000 C.3     1  UNL1       -0.0178
      5 C           5.2304    1.6496    0.0000 C.3     1  UNL1       -0.0097
      6 C           4.2260   -1.5716    0.0000 C.3     1  UNL1       -0.0144
      7 C           5.6131    0.7257    0.0000 C.3     1  UNL1        0.0676
      8 C           3.0000    0.7257    0.0000 C.3     1  UNL1       -0.0384
      9 C           2.7390   -0.9557    0.0000 C.3     1  UNL1       -0.0470
     10 C           3.2592   -1.8029    0.0000 C.3     1  UNL1       -0.0475
     11 C           4.3066    2.0323    0.0000 C.3     1  UNL1       -0.0473
     12 C           3.3827    1.6496    0.0000 C.3     1  UNL1       -0.0498
     13 C           4.9853   -2.2224    0.0000 C.3     1  UNL1       -0.0598
     14 C           6.4221    0.1379    0.0000 C.3     1  UNL1       -0.0358
     15 C           6.4221    1.3135    0.0000 C.3     1  UNL1       -0.0358
     16 C           2.0000    0.7257    0.0000 C.3     1  UNL1       -0.0621
     17 H           3.8211    0.2403    0.0000 H       1  UNL1        0.0331
     18 H           4.1029    1.2010    0.0000 H       1  UNL1        0.0297
     19 H           5.0031    0.4372    0.0000 H       1  UNL1        0.0297
     20 H           5.5557    2.4349    0.0000 H       1  UNL1        0.0329
     21 H           4.7993   -1.3356    0.0000 H       1  UNL1        0.0326
     22 H           2.6556    0.2102    0.0000 H       1  UNL1        0.0302
     23 H           2.3114   -0.5069    0.0000 H       1  UNL1        0.0269
     24 H           2.2477   -1.3339    0.0000 H       1  UNL1        0.0269
     25 H           2.6997   -2.0700    0.0000 H       1  UNL1        0.0269
     26 H           3.4660   -2.3874    0.0000 H       1  UNL1        0.0269
     27 H           4.6840    2.5242    0.0000 H       1  UNL1        0.0269
     28 H           3.9291    2.5242    0.0000 H       1  UNL1        0.0269
     29 H           3.3018    2.2643    0.0000 H       1  UNL1        0.0268
     30 H           2.7680    1.7305    0.0000 H       1  UNL1        0.0268
     31 H           4.5818   -2.6932    0.0000 H       1  UNL1        0.0233
     32 H           5.4560   -2.6259    0.0000 H       1  UNL1        0.0233
     33 H           5.3888   -1.7517    0.0000 H       1  UNL1        0.0233
     34 H           6.0577   -0.3637    0.0000 H       1  UNL1        0.0257
     35 H           6.9237   -0.2265    0.0000 H       1  UNL1        0.0257
     36 H           6.7866    0.6395    0.0000 H       1  UNL1        0.0257
     37 H           6.7866    0.8119    0.0000 H       1  UNL1        0.0257
     38 H           6.9237    1.6779    0.0000 H       1  UNL1        0.0257
     39 H           6.0577    1.8151    0.0000 H       1  UNL1        0.0257
     40 H           2.0000    1.3457    0.0000 H       1  UNL1        0.0233
     41 H           1.3800    0.7257    0.0000 H       1  UNL1        0.0233
     42 H           2.0000    0.1057    0.0000 H       1  UNL1        0.0233
@<TRIPOS>BOND
     1     2     1    1
     2     1     7    1
     3     2     3    1
     4     2     4    1
     5     2     6    1
     6     3     8    1
     7     3     9    1
     8     3    17    1
     9     4     5    1
    10     4    18    1
    11     4    19    1
    12     5     7    1
    13     5    11    1
    14     5    20    1
    15     6    10    1
    16     6    13    1
    17     6    21    1
    18     7    14    1
    19     7    15    1
    20     8    12    1
    21     8    16    1
    22     8    22    1
    23     9    10    1
    24     9    23    1
    25     9    24    1
    26    10    25    1
    27    10    26    1
    28    11    12    1
    29    11    27    1
    30    11    28    1
    31    12    29    1
    32    12    30    1
    33    13    31    1
    34    13    32    1
    35    13    33    1
    36    14    34    1
    37    14    35    1
    38    14    36    1
    39    15    37    1
    40    15    38    1
    41    15    39    1
    42    16    40    1
    43    16    41    1
    44    16    42    1
