@<TRIPOS>MOLECULE
IMPHY016212
 19 21 0 0 0
SMALL
GASTEIGER

@<TRIPOS>ATOM
      1 C           4.6660   -0.7671    0.0000 C.ar    1  UNL1       -0.0319
      2 C           5.5323   -1.2676    0.0000 C.3     1  UNL1       -0.0013
      3 C           5.5321   -0.2671    0.0000 C.ar    1  UNL1       -0.0390
      4 C           3.8000   -0.2671    0.0000 C.ar    1  UNL1       -0.0141
      5 C           3.8000    0.7329    0.0000 C.ar    1  UNL1       -0.0176
      6 C           5.5321    0.7329    0.0000 C.ar    1  UNL1       -0.0574
      7 C           4.6660    1.2329    0.0000 C.ar    1  UNL1       -0.0537
      8 C           2.9061   -0.8018    0.0000 C.ar    1  UNL1       -0.0538
      9 C           2.9061    1.2676    0.0000 C.ar    1  UNL1       -0.0540
     10 C           2.0000   -0.2879    0.0000 C.ar    1  UNL1       -0.0612
     11 C           2.0000    0.7537    0.0000 C.ar    1  UNL1       -0.0612
     12 H           5.3202   -1.8501    0.0000 H       1  UNL1        0.0362
     13 H           6.1429   -1.3752    0.0000 H       1  UNL1        0.0362
     14 H           6.0690    1.0429    0.0000 H       1  UNL1        0.0621
     15 H           4.6660    1.8529    0.0000 H       1  UNL1        0.0624
     16 H           2.9132   -1.4217    0.0000 H       1  UNL1        0.0624
     17 H           2.9132    1.8875    0.0000 H       1  UNL1        0.0624
     18 H           1.4643   -0.6000    0.0000 H       1  UNL1        0.0618
     19 H           1.4643    1.0658    0.0000 H       1  UNL1        0.0618
@<TRIPOS>BOND
     1     1     2    1
     2     1     3   ar
     3     1     4   ar
     4     2     3    1
     5     2    12    1
     6     2    13    1
     7     3     6   ar
     8     4     5   ar
     9     4     8   ar
    10     5     7   ar
    11     5     9   ar
    12     6     7   ar
    13     6    14    1
    14     7    15    1
    15     8    10   ar
    16     8    16    1
    17     9    11   ar
    18     9    17    1
    19    10    11   ar
    20    10    18    1
    21    11    19    1
