@<TRIPOS>MOLECULE
IMPHY006930
 33 35 0 0 0
SMALL
GASTEIGER

@<TRIPOS>ATOM
      1 O           7.2785    1.7623    0.0000 O.3     1  UNL1       -0.4943
      2 O           5.5301    1.7277    0.0000 O.2     1  UNL1       -0.2865
      3 O           5.5301   -2.2723    0.0000 O.2     1  UNL1       -0.2866
      4 O           2.0000    0.7519    0.0000 O.3     1  UNL1       -0.5065
      5 O           9.0602   -1.2964    0.0000 O.3     1  UNL1       -0.5066
      6 C           4.6641   -0.7723    0.0000 C.ar    1  UNL1        0.0336
      7 C           4.6641    0.2277    0.0000 C.ar    1  UNL1        0.0367
      8 C           6.3961    0.2277    0.0000 C.ar    1  UNL1        0.0749
      9 C           6.3961   -0.7723    0.0000 C.ar    1  UNL1        0.0400
     10 C           5.5301    0.7277    0.0000 C.2     1  UNL1        0.1981
     11 C           5.5301   -1.2723    0.0000 C.2     1  UNL1        0.1947
     12 C           3.7702   -1.3070    0.0000 C.ar    1  UNL1       -0.0439
     13 C           7.2901    0.7624    0.0000 C.ar    1  UNL1        0.1350
     14 C           3.7702    0.7624    0.0000 C.ar    1  UNL1       -0.0084
     15 C           2.8641   -0.7931    0.0000 C.ar    1  UNL1       -0.0083
     16 C           7.2901   -1.3070    0.0000 C.ar    1  UNL1       -0.0084
     17 C           2.8641    0.2485    0.0000 C.ar    1  UNL1        0.1205
     18 C           8.1962    0.2485    0.0000 C.ar    1  UNL1        0.0223
     19 C           8.1962   -0.7931    0.0000 C.ar    1  UNL1        0.1210
     20 C           2.0000   -1.2964    0.0000 C.3     1  UNL1       -0.0362
     21 C           8.1387    2.2723    0.0000 C.3     1  UNL1        0.0788
     22 H           3.7773   -1.9269    0.0000 H       1  UNL1        0.0629
     23 H           3.7773    1.3823    0.0000 H       1  UNL1        0.0661
     24 H           7.2829   -1.9269    0.0000 H       1  UNL1        0.0661
     25 H           8.7319    0.5606    0.0000 H       1  UNL1        0.0691
     26 H           1.6879   -0.7607    0.0000 H       1  UNL1        0.0279
     27 H           1.4643   -1.6085    0.0000 H       1  UNL1        0.0279
     28 H           2.3121   -1.8322    0.0000 H       1  UNL1        0.0279
     29 H           2.0024    1.3719    0.0000 H       1  UNL1        0.2921
     30 H           9.5984   -0.9885    0.0000 H       1  UNL1        0.2921
     31 H           8.4549    1.7390    0.0000 H       1  UNL1        0.0660
     32 H           8.6720    2.5885    0.0000 H       1  UNL1        0.0660
     33 H           7.8225    2.8056    0.0000 H       1  UNL1        0.0660
@<TRIPOS>BOND
     1     1    13    1
     2     1    21    1
     3     2    10    2
     4     3    11    2
     5     4    17    1
     6     4    29    1
     7     5    19    1
     8     5    30    1
     9     6     7   ar
    10     6    11    1
    11     6    12   ar
    12     7    10    1
    13     7    14   ar
    14     8     9   ar
    15     8    10    1
    16     8    13   ar
    17     9    11    1
    18     9    16   ar
    19    12    15   ar
    20    12    22    1
    21    13    18   ar
    22    14    17   ar
    23    14    23    1
    24    15    17   ar
    25    15    20    1
    26    16    19   ar
    27    16    24    1
    28    18    19   ar
    29    18    25    1
    30    20    26    1
    31    20    27    1
    32    20    28    1
    33    21    31    1
    34    21    32    1
    35    21    33    1
