@<TRIPOS>MOLECULE
IMPHY001894
 34 35 0 0 0
SMALL
GASTEIGER

@<TRIPOS>ATOM
      1 O           4.2690    0.1550    0.0000 O.3     1  UNL1       -0.3313
      2 O           4.2690   -2.8450    0.0000 O.3     1  UNL1       -0.3864
      3 O           2.5369   -1.8450    0.0000 O.3     1  UNL1       -0.3865
      4 O           6.0010    0.1550    0.0000 O.3     1  UNL1       -0.4608
      5 O           6.0010   -1.8450    0.0000 O.3     1  UNL1       -0.3829
      6 O           2.5369    1.1550    0.0000 O.3     1  UNL1       -0.3924
      7 C           4.2690   -1.8450    0.0000 C.3     1  UNL1        0.1152
      8 C           3.4030   -1.3450    0.0000 C.3     1  UNL1        0.1120
      9 C           5.1350   -1.3450    0.0000 C.3     1  UNL1        0.1454
     10 C           3.4030   -0.3450    0.0000 C.3     1  UNL1        0.1140
     11 C           5.1350   -0.3450    0.0000 C.3     1  UNL1        0.2308
     12 C           2.5369    0.1550    0.0000 C.3     1  UNL1        0.0731
     13 C           6.0010    1.1550    0.0000 C.ar    1  UNL1        0.1240
     14 C           6.8671    1.6550    0.0000 C.ar    1  UNL1       -0.0198
     15 C           5.1350    1.6550    0.0000 C.ar    1  UNL1       -0.0198
     16 C           6.8671    2.6550    0.0000 C.ar    1  UNL1       -0.0583
     17 C           5.1350    2.6550    0.0000 C.ar    1  UNL1       -0.0583
     18 C           6.0010    3.1550    0.0000 C.ar    1  UNL1       -0.0615
     19 H           4.8059   -2.1550    0.0000 H       1  UNL1        0.0648
     20 H           3.4030   -1.9650    0.0000 H       1  UNL1        0.0647
     21 H           5.6720   -1.0350    0.0000 H       1  UNL1        0.0683
     22 H           3.4030    0.2750    0.0000 H       1  UNL1        0.0647
     23 H           5.1350    0.2750    0.0000 H       1  UNL1        0.1084
     24 H           1.9264    0.2627    0.0000 H       1  UNL1        0.0584
     25 H           2.3249   -0.4276    0.0000 H       1  UNL1        0.0584
     26 H           3.7320   -3.1550    0.0000 H       1  UNL1        0.2100
     27 H           2.0000   -1.5350    0.0000 H       1  UNL1        0.2100
     28 H           6.5380   -1.5350    0.0000 H       1  UNL1        0.2102
     29 H           2.0000    1.4650    0.0000 H       1  UNL1        0.2095
     30 H           7.4040    1.3450    0.0000 H       1  UNL1        0.0654
     31 H           4.5981    1.3450    0.0000 H       1  UNL1        0.0654
     32 H           7.4040    2.9650    0.0000 H       1  UNL1        0.0619
     33 H           4.5981    2.9650    0.0000 H       1  UNL1        0.0619
     34 H           6.0010    3.7750    0.0000 H       1  UNL1        0.0618
@<TRIPOS>BOND
     1     1    10    1
     2     1    11    1
     3     7     2    1
     4     2    26    1
     5     8     3    1
     6     3    27    1
     7     4    11    1
     8     4    13    1
     9     9     5    1
    10     5    28    1
    11     6    12    1
    12     6    29    1
    13     7     8    1
    14     7     9    1
    15     7    19    1
    16     8    10    1
    17     8    20    1
    18     9    11    1
    19     9    21    1
    20    10    12    1
    21    10    22    1
    22    11    23    1
    23    12    24    1
    24    12    25    1
    25    13    14   ar
    26    13    15   ar
    27    14    16   ar
    28    14    30    1
    29    15    17   ar
    30    15    31    1
    31    16    18   ar
    32    16    32    1
    33    17    18   ar
    34    17    33    1
    35    18    34    1
