@<TRIPOS>MOLECULE
IMPHY003336
 62 64 0 0 0
SMALL
GASTEIGER

@<TRIPOS>ATOM
      1 O           9.4651   -0.5000    0.0000 O.3     1  UNL1       -0.3302
      2 O          11.1972   -0.5000    0.0000 O.3     1  UNL1       -0.4605
      3 O           7.7331   -2.5000    0.0000 O.3     1  UNL1       -0.3864
      4 O           9.4651   -3.5000    0.0000 O.3     1  UNL1       -0.3864
      5 O          11.1972   -2.5000    0.0000 O.3     1  UNL1       -0.3829
      6 O           6.8671   -1.0000    0.0000 O.3     1  UNL1       -0.4585
      7 O          11.1972    3.5000    0.0000 O.3     1  UNL1       -0.5065
      8 O           6.0010    0.5000    0.0000 O.2     1  UNL1       -0.2450
      9 O           4.2690   -3.5000    0.0000 O.3     1  UNL1       -0.5032
     10 O           2.5369   -0.5000    0.0000 O.3     1  UNL1       -0.5032
     11 O           2.5369   -2.5000    0.0000 O.3     1  UNL1       -0.5009
     12 C           8.5991   -2.0000    0.0000 C.3     1  UNL1        0.1130
     13 C           9.4651   -2.5000    0.0000 C.3     1  UNL1        0.1152
     14 C           8.5991   -1.0000    0.0000 C.3     1  UNL1        0.1250
     15 C          10.3312   -2.0000    0.0000 C.3     1  UNL1        0.1454
     16 C          10.3312   -1.0000    0.0000 C.3     1  UNL1        0.2308
     17 C           7.7331   -0.5000    0.0000 C.3     1  UNL1        0.1215
     18 C          11.1972    0.5000    0.0000 C.ar    1  UNL1        0.1279
     19 C          12.0632    1.0000    0.0000 C.ar    1  UNL1        0.0004
     20 C          12.9292    0.5000    0.0000 C.3     1  UNL1       -0.0179
     21 C          10.3312    1.0000    0.0000 C.ar    1  UNL1       -0.0132
     22 C          12.0632    2.0000    0.0000 C.ar    1  UNL1       -0.0130
     23 C          10.3312    2.0000    0.0000 C.ar    1  UNL1       -0.0056
     24 C          11.1972    2.5000    0.0000 C.ar    1  UNL1        0.1202
     25 C          13.7953    1.0000    0.0000 C.3     1  UNL1       -0.0585
     26 C          12.9292   -0.5000    0.0000 C.3     1  UNL1       -0.0585
     27 C           6.0010   -0.5000    0.0000 C.2     1  UNL1        0.3395
     28 C           9.4651    2.5000    0.0000 C.3     1  UNL1       -0.0361
     29 C           5.1350   -1.0000    0.0000 C.ar    1  UNL1        0.0661
     30 C           4.2690   -0.5000    0.0000 C.ar    1  UNL1       -0.0023
     31 C           5.1350   -2.0000    0.0000 C.ar    1  UNL1       -0.0023
     32 C           4.2690   -2.5000    0.0000 C.ar    1  UNL1        0.1628
     33 C           3.4030   -1.0000    0.0000 C.ar    1  UNL1        0.1628
     34 C           3.4030   -2.0000    0.0000 C.ar    1  UNL1        0.2006
     35 H           8.5991   -2.6200    0.0000 H       1  UNL1        0.0647
     36 H          10.0021   -2.8100    0.0000 H       1  UNL1        0.0648
     37 H           8.5991   -0.3800    0.0000 H       1  UNL1        0.0658
     38 H          10.8681   -1.6900    0.0000 H       1  UNL1        0.0683
     39 H          10.3312   -0.3800    0.0000 H       1  UNL1        0.1084
     40 H           8.1316   -0.0251    0.0000 H       1  UNL1        0.0725
     41 H           7.3346   -0.0251    0.0000 H       1  UNL1        0.0725
     42 H           7.7331   -3.1200    0.0000 H       1  UNL1        0.2100
     43 H           8.9282   -3.8100    0.0000 H       1  UNL1        0.2100
     44 H          11.1972   -3.1200    0.0000 H       1  UNL1        0.2102
     45 H          12.3923    0.1900    0.0000 H       1  UNL1        0.0345
     46 H           9.7942    0.6900    0.0000 H       1  UNL1        0.0658
     47 H          12.6002    2.3100    0.0000 H       1  UNL1        0.0658
     48 H          14.1053    0.4631    0.0000 H       1  UNL1        0.0235
     49 H          14.3322    1.3100    0.0000 H       1  UNL1        0.0235
     50 H          13.4853    1.5369    0.0000 H       1  UNL1        0.0235
     51 H          12.3092   -0.5000    0.0000 H       1  UNL1        0.0235
     52 H          12.9292   -1.1200    0.0000 H       1  UNL1        0.0235
     53 H          13.5492   -0.5000    0.0000 H       1  UNL1        0.0235
     54 H           9.7751    3.0369    0.0000 H       1  UNL1        0.0279
     55 H           8.9282    2.8100    0.0000 H       1  UNL1        0.0279
     56 H           9.1551    1.9631    0.0000 H       1  UNL1        0.0279
     57 H          11.7341    3.8100    0.0000 H       1  UNL1        0.2921
     58 H           4.2690    0.1200    0.0000 H       1  UNL1        0.0663
     59 H           5.6720   -2.3100    0.0000 H       1  UNL1        0.0663
     60 H           3.7320   -3.8100    0.0000 H       1  UNL1        0.2923
     61 H           2.5369    0.1200    0.0000 H       1  UNL1        0.2923
     62 H           2.0000   -2.1900    0.0000 H       1  UNL1        0.2924
@<TRIPOS>BOND
     1     1    14    1
     2     1    16    1
     3    16     2    1
     4     2    18    1
     5    12     3    1
     6     3    42    1
     7    13     4    1
     8     4    43    1
     9    15     5    1
    10     5    44    1
    11     6    17    1
    12     6    27    1
    13     7    24    1
    14     7    57    1
    15     8    27    2
    16     9    32    1
    17     9    60    1
    18    10    33    1
    19    10    61    1
    20    11    34    1
    21    11    62    1
    22    12    13    1
    23    12    14    1
    24    12    35    1
    25    13    15    1
    26    13    36    1
    27    14    17    1
    28    14    37    1
    29    15    16    1
    30    15    38    1
    31    16    39    1
    32    17    40    1
    33    17    41    1
    34    18    19   ar
    35    18    21   ar
    36    19    20    1
    37    19    22   ar
    38    20    25    1
    39    20    26    1
    40    20    45    1
    41    21    23   ar
    42    21    46    1
    43    22    24   ar
    44    22    47    1
    45    23    24   ar
    46    23    28    1
    47    25    48    1
    48    25    49    1
    49    25    50    1
    50    26    51    1
    51    26    52    1
    52    26    53    1
    53    27    29    1
    54    28    54    1
    55    28    55    1
    56    28    56    1
    57    29    30   ar
    58    29    31   ar
    59    30    33   ar
    60    30    58    1
    61    31    32   ar
    62    31    59    1
    63    32    34   ar
    64    33    34   ar
