@<TRIPOS>MOLECULE
IMPHY017466
 36 36 0 0 0
SMALL
GASTEIGER

@<TRIPOS>ATOM
      1 C           3.7071    0.1134    0.0000 C.3     1  UNL1       -0.0385
      2 C           4.0898   -0.8104    0.0000 C.3     1  UNL1       -0.0413
      3 C           2.7071    0.1134    0.0000 C.3     1  UNL1       -0.0500
      4 C           4.4142    0.8206    0.0000 C.3     1  UNL1       -0.0500
      5 C           2.0000    0.8206    0.0000 C.3     1  UNL1       -0.0528
      6 C           4.4142    1.8206    0.0000 C.3     1  UNL1       -0.0528
      7 C           2.0000    1.8206    0.0000 C.3     1  UNL1       -0.0530
      8 C           3.7071    2.5277    0.0000 C.3     1  UNL1       -0.0530
      9 C           2.7071    2.5277    0.0000 C.3     1  UNL1       -0.0531
     10 C           3.4810   -1.6038    0.0000 C.3     1  UNL1       -0.0531
     11 C           5.0812   -0.9410    0.0000 C.3     1  UNL1       -0.0622
     12 C           3.8637   -2.5277    0.0000 C.3     1  UNL1       -0.0650
     13 H           3.3626   -0.4021    0.0000 H       1  UNL1        0.0303
     14 H           4.4672   -0.3186    0.0000 H       1  UNL1        0.0301
     15 H           2.1702   -0.1966    0.0000 H       1  UNL1        0.0268
     16 H           2.8676   -0.4854    0.0000 H       1  UNL1        0.0268
     17 H           4.7242    0.2836    0.0000 H       1  UNL1        0.0268
     18 H           5.0131    0.9810    0.0000 H       1  UNL1        0.0268
     19 H           1.4011    0.9810    0.0000 H       1  UNL1        0.0265
     20 H           1.6900    0.2836    0.0000 H       1  UNL1        0.0265
     21 H           5.0131    1.6601    0.0000 H       1  UNL1        0.0265
     22 H           4.7242    2.3575    0.0000 H       1  UNL1        0.0265
     23 H           1.6900    2.3575    0.0000 H       1  UNL1        0.0265
     24 H           1.4011    1.6601    0.0000 H       1  UNL1        0.0265
     25 H           4.2440    2.8377    0.0000 H       1  UNL1        0.0265
     26 H           3.5466    3.1265    0.0000 H       1  UNL1        0.0265
     27 H           2.8676    3.1265    0.0000 H       1  UNL1        0.0265
     28 H           2.1702    2.8377    0.0000 H       1  UNL1        0.0265
     29 H           3.0622   -1.1467    0.0000 H       1  UNL1        0.0265
     30 H           2.9581   -1.9369    0.0000 H       1  UNL1        0.0265
     31 H           5.0003   -1.5556    0.0000 H       1  UNL1        0.0233
     32 H           5.6959   -1.0219    0.0000 H       1  UNL1        0.0233
     33 H           5.1622   -0.3263    0.0000 H       1  UNL1        0.0233
     34 H           3.2909   -2.7649    0.0000 H       1  UNL1        0.0230
     35 H           4.1010   -3.1005    0.0000 H       1  UNL1        0.0230
     36 H           4.4365   -2.2904    0.0000 H       1  UNL1        0.0230
@<TRIPOS>BOND
     1     1     2    1
     2     1     3    1
     3     1     4    1
     4     1    13    1
     5     2    10    1
     6     2    11    1
     7     2    14    1
     8     3     5    1
     9     3    15    1
    10     3    16    1
    11     4     6    1
    12     4    17    1
    13     4    18    1
    14     5     7    1
    15     5    19    1
    16     5    20    1
    17     6     8    1
    18     6    21    1
    19     6    22    1
    20     7     9    1
    21     7    23    1
    22     7    24    1
    23     8     9    1
    24     8    25    1
    25     8    26    1
    26     9    27    1
    27     9    28    1
    28    10    12    1
    29    10    29    1
    30    10    30    1
    31    11    31    1
    32    11    32    1
    33    11    33    1
    34    12    34    1
    35    12    35    1
    36    12    36    1
