@<TRIPOS>MOLECULE
IMPHY014508
 59 63 0 0 0
SMALL
GASTEIGER

@<TRIPOS>ATOM
      1 O           6.4196   -1.4079    0.0000 O.3     1  UNL1       -0.4582
      2 O          12.1184    0.6777    0.0000 O.2     1  UNL1       -0.2756
      3 O           4.6913   -1.2937    0.0000 O.2     1  UNL1       -0.2456
      4 N           6.6458    1.6530    0.0000 N.3     1  UNL1       -0.2985
      5 N          10.7446    1.7942    0.0000 N.am    1  UNL1       -0.2978
      6 C           8.6958    1.9595    0.0000 C.3     1  UNL1       -0.0091
      7 C           8.9546    2.9254    0.0000 C.3     1  UNL1       -0.0092
      8 C           7.4748    1.0938    0.0000 C.3     1  UNL1        0.0180
      9 C           8.2180    3.9080    0.0000 C.3     1  UNL1       -0.0417
     10 C          10.3863    2.7278    0.0000 C.3     1  UNL1        0.0300
     11 C           6.9214    2.6143    0.0000 C.3     1  UNL1        0.0037
     12 C           9.9675    1.1649    0.0000 C.3     1  UNL1        0.0192
     13 C           7.4182    0.0538    0.0000 C.3     1  UNL1        0.0003
     14 C          11.0292    3.5473    0.0000 C.3     1  UNL1       -0.0336
     15 C           5.7026    1.2109    0.0000 C.3     1  UNL1        0.0025
     16 C           6.4855   -0.4101    0.0000 C.3     1  UNL1        0.1060
     17 C           5.6219    0.1724    0.0000 C.3     1  UNL1       -0.0028
     18 C          12.0593    3.3923    0.0000 C.3     1  UNL1       -0.0431
     19 C          11.7708    1.6154    0.0000 C.2     1  UNL1        0.2158
     20 C          12.4325    2.4198    0.0000 C.3     1  UNL1        0.0242
     21 C           5.5225   -1.8497    0.0000 C.2     1  UNL1        0.3322
     22 C           5.4566   -2.8476    0.0000 C.2     1  UNL1        0.0231
     23 C           4.5595   -3.2894    0.0000 C.2     1  UNL1       -0.0478
     24 C           3.7283   -2.7334    0.0000 C.ar    1  UNL1       -0.0248
     25 C           3.7942   -1.7356    0.0000 C.ar    1  UNL1       -0.0546
     26 C           2.8312   -3.1752    0.0000 C.ar    1  UNL1       -0.0546
     27 C           2.9630   -1.1796    0.0000 C.ar    1  UNL1       -0.0612
     28 C           2.0000   -2.6192    0.0000 C.ar    1  UNL1       -0.0612
     29 C           2.0659   -1.6214    0.0000 C.ar    1  UNL1       -0.0617
     30 H           9.1981    2.3230    0.0000 H       1  UNL1        0.0331
     31 H           8.9592    2.3054    0.0000 H       1  UNL1        0.0331
     32 H           8.1795    0.6185    0.0000 H       1  UNL1        0.0467
     33 H           8.5358    4.4404    0.0000 H       1  UNL1        0.0273
     34 H           7.6049    4.0000    0.0000 H       1  UNL1        0.0273
     35 H          10.0817    3.5213    0.0000 H       1  UNL1        0.0503
     36 H           6.9163    3.2343    0.0000 H       1  UNL1        0.0430
     37 H           6.3071    2.6981    0.0000 H       1  UNL1        0.0430
     38 H           9.5829    0.6785    0.0000 H       1  UNL1        0.0468
     39 H          10.4084    0.7290    0.0000 H       1  UNL1        0.0468
     40 H           7.5952   -0.5404    0.0000 H       1  UNL1        0.0316
     41 H           8.0339    0.1265    0.0000 H       1  UNL1        0.0316
     42 H          11.2250    4.1355    0.0000 H       1  UNL1        0.0283
     43 H          10.4831    3.8409    0.0000 H       1  UNL1        0.0283
     44 H           5.5394    1.8090    0.0000 H       1  UNL1        0.0428
     45 H           5.0854    1.1524    0.0000 H       1  UNL1        0.0428
     46 H           7.0015   -0.7538    0.0000 H       1  UNL1        0.0735
     47 H           5.0211    0.3255    0.0000 H       1  UNL1        0.0313
     48 H           5.3683   -0.3934    0.0000 H       1  UNL1        0.0313
     49 H          12.6676    3.5121    0.0000 H       1  UNL1        0.0270
     50 H          12.0453    4.0121    0.0000 H       1  UNL1        0.0270
     51 H          12.8369    1.9498    0.0000 H       1  UNL1        0.0358
     52 H          12.9648    2.7378    0.0000 H       1  UNL1        0.0358
     53 H           5.9719   -3.1923    0.0000 H       1  UNL1        0.0689
     54 H           4.5186   -3.9080    0.0000 H       1  UNL1        0.0626
     55 H           4.3504   -1.4616    0.0000 H       1  UNL1        0.0623
     56 H           2.7903   -3.7939    0.0000 H       1  UNL1        0.0623
     57 H           3.0039   -0.5609    0.0000 H       1  UNL1        0.0618
     58 H           1.4438   -2.8932    0.0000 H       1  UNL1        0.0618
     59 H           1.5506   -1.2767    0.0000 H       1  UNL1        0.0618
@<TRIPOS>BOND
     1     1    16    1
     2     1    21    1
     3     2    19    2
     4     3    21    2
     5     4     8    1
     6     4    11    1
     7     4    15    1
     8     5    10    1
     9     5    12    1
    10     5    19   am
    11     6     8    1
    12     6     9    1
    13     6    12    1
    14     6    30    1
    15     7     9    1
    16     7    10    1
    17     7    11    1
    18     7    31    1
    19     8    13    1
    20     8    32    1
    21     9    33    1
    22     9    34    1
    23    10    14    1
    24    10    35    1
    25    11    36    1
    26    11    37    1
    27    12    38    1
    28    12    39    1
    29    13    16    1
    30    13    40    1
    31    13    41    1
    32    14    18    1
    33    14    42    1
    34    14    43    1
    35    15    17    1
    36    15    44    1
    37    15    45    1
    38    16    17    1
    39    16    46    1
    40    17    47    1
    41    17    48    1
    42    18    20    1
    43    18    49    1
    44    18    50    1
    45    19    20    1
    46    20    51    1
    47    20    52    1
    48    21    22    1
    49    22    23    2
    50    22    53    1
    51    23    24    1
    52    23    54    1
    53    24    25   ar
    54    24    26   ar
    55    25    27   ar
    56    25    55    1
    57    26    28   ar
    58    26    56    1
    59    27    29   ar
    60    27    57    1
    61    28    29   ar
    62    28    58    1
    63    29    59    1
