@<TRIPOS>MOLECULE
IMPHY007398
 10 10 0 0 0
SMALL
GASTEIGER

@<TRIPOS>ATOM
      1 N           2.8660   -1.0000    0.0000 N.ar    1  UNL1       -0.2603
      2 N           2.8660    1.0000    0.0000 N.ar    1  UNL1       -0.2603
      3 C           2.0000   -0.5000    0.0000 C.ar    1  UNL1        0.0456
      4 C           2.0000    0.5000    0.0000 C.ar    1  UNL1        0.0456
      5 C           3.7320   -0.5000    0.0000 C.ar    1  UNL1        0.0456
      6 C           3.7320    0.5000    0.0000 C.ar    1  UNL1        0.0456
      7 H           1.4631   -0.8100    0.0000 H       1  UNL1        0.0845
      8 H           1.4631    0.8100    0.0000 H       1  UNL1        0.0845
      9 H           4.2690   -0.8100    0.0000 H       1  UNL1        0.0845
     10 H           4.2690    0.8100    0.0000 H       1  UNL1        0.0845
@<TRIPOS>BOND
     1     1     3   ar
     2     1     5   ar
     3     2     4   ar
     4     2     6   ar
     5     3     4   ar
     6     3     7    1
     7     4     8    1
     8     5     6   ar
     9     5     9    1
    10     6    10    1
