@<TRIPOS>MOLECULE
IMPHY013673
 50 52 0 0 0
SMALL
GASTEIGER

@<TRIPOS>ATOM
      1 O           5.4641    2.2311    0.0000 O.3     1  UNL1       -0.3394
      2 O           7.1962    2.2311    0.0000 O.3     1  UNL1       -0.3415
      3 O           3.7320    0.2311    0.0000 O.3     1  UNL1       -0.4557
      4 O           5.4641   -0.7689    0.0000 O.3     1  UNL1       -0.3853
      5 O           7.1962    0.2311    0.0000 O.3     1  UNL1       -0.3841
      6 O           7.6962    4.7699    0.0000 O.3     1  UNL1       -0.4619
      7 O           3.7320    3.2311    0.0000 O.3     1  UNL1       -0.3923
      8 O           6.1084    5.5789    0.0000 O.2     1  UNL1       -0.2508
      9 O           4.5981   -1.2689    0.0000 O.2     1  UNL1       -0.2505
     10 O           2.8660   -5.2689    0.0000 O.3     1  UNL1       -0.5068
     11 C           4.5981    0.7311    0.0000 C.3     1  UNL1        0.1595
     12 C           5.4641    0.2311    0.0000 C.3     1  UNL1        0.1251
     13 C           6.3301    0.7311    0.0000 C.3     1  UNL1        0.1352
     14 C           4.5981    1.7311    0.0000 C.3     1  UNL1        0.1240
     15 C           6.3301    1.7311    0.0000 C.3     1  UNL1        0.1885
     16 C           3.7320    2.2311    0.0000 C.3     1  UNL1        0.0741
     17 C           7.1962    3.2311    0.0000 C.3     1  UNL1        0.1058
     18 C           6.3871    3.8189    0.0000 C.3     1  UNL1        0.0744
     19 C           8.0052    3.8189    0.0000 C.3     1  UNL1        0.1191
     20 C           6.6962    4.7699    0.0000 C.2     1  UNL1        0.3098
     21 C           3.7320   -0.7689    0.0000 C.2     1  UNL1        0.3119
     22 C           2.8660   -1.2689    0.0000 C.3     1  UNL1        0.0701
     23 C           2.8660   -2.2689    0.0000 C.ar    1  UNL1       -0.0365
     24 C           2.0000   -2.7689    0.0000 C.ar    1  UNL1       -0.0546
     25 C           3.7320   -2.7689    0.0000 C.ar    1  UNL1       -0.0546
     26 C           2.0000   -3.7689    0.0000 C.ar    1  UNL1       -0.0199
     27 C           3.7320   -3.7689    0.0000 C.ar    1  UNL1       -0.0199
     28 C           2.8660   -4.2689    0.0000 C.ar    1  UNL1        0.1169
     29 H           4.5981    0.1111    0.0000 H       1  UNL1        0.0788
     30 H           4.9272   -0.0789    0.0000 H       1  UNL1        0.0659
     31 H           6.3301    0.1111    0.0000 H       1  UNL1        0.0671
     32 H           4.5981    2.3511    0.0000 H       1  UNL1        0.0658
     33 H           6.8671    1.4211    0.0000 H       1  UNL1        0.0938
     34 H           7.7486    2.9496    0.0000 H       1  UNL1        0.0636
     35 H           3.1215    2.3387    0.0000 H       1  UNL1        0.0584
     36 H           3.5200    1.6485    0.0000 H       1  UNL1        0.0584
     37 H           5.8207    4.0710    0.0000 H       1  UNL1        0.0404
     38 H           6.0771    3.2819    0.0000 H       1  UNL1        0.0404
     39 H           8.3152    3.2819    0.0000 H       1  UNL1        0.0724
     40 H           8.5716    4.0710    0.0000 H       1  UNL1        0.0724
     41 H           6.0010   -1.0789    0.0000 H       1  UNL1        0.2101
     42 H           7.7331    0.5411    0.0000 H       1  UNL1        0.2101
     43 H           3.1951    3.5411    0.0000 H       1  UNL1        0.2095
     44 H           2.6540   -0.6863    0.0000 H       1  UNL1        0.0426
     45 H           2.2554   -1.3766    0.0000 H       1  UNL1        0.0426
     46 H           1.4631   -2.4589    0.0000 H       1  UNL1        0.0622
     47 H           4.2690   -2.4589    0.0000 H       1  UNL1        0.0622
     48 H           1.4631   -4.0789    0.0000 H       1  UNL1        0.0654
     49 H           4.2690   -4.0789    0.0000 H       1  UNL1        0.0654
     50 H           2.3291   -5.5789    0.0000 H       1  UNL1        0.2921
@<TRIPOS>BOND
     1     1    14    1
     2     1    15    1
     3     2    15    1
     4     2    17    1
     5     3    11    1
     6     3    21    1
     7     4    12    1
     8     4    41    1
     9     5    13    1
    10     5    42    1
    11     6    19    1
    12     6    20    1
    13     7    16    1
    14     7    43    1
    15     8    20    2
    16     9    21    2
    17    10    28    1
    18    10    50    1
    19    11    12    1
    20    11    14    1
    21    11    29    1
    22    12    13    1
    23    12    30    1
    24    13    15    1
    25    13    31    1
    26    14    16    1
    27    14    32    1
    28    15    33    1
    29    16    35    1
    30    16    36    1
    31    17    18    1
    32    17    19    1
    33    17    34    1
    34    18    20    1
    35    18    37    1
    36    18    38    1
    37    19    39    1
    38    19    40    1
    39    21    22    1
    40    22    23    1
    41    22    44    1
    42    22    45    1
    43    23    24   ar
    44    23    25   ar
    45    24    26   ar
    46    24    46    1
    47    25    27   ar
    48    25    47    1
    49    26    28   ar
    50    26    48    1
    51    27    28   ar
    52    27    49    1
