@<TRIPOS>MOLECULE
IMPHY012949
 42 43 0 0 0
SMALL
GASTEIGER

@<TRIPOS>ATOM
      1 O           4.5981   -1.5950    0.0000 O.3     1  UNL1       -0.3909
      2 C           5.4641    0.9050    0.0000 C.3     1  UNL1       -0.0232
      3 C           5.4641   -0.0950    0.0000 C.3     1  UNL1        0.0115
      4 C           4.5981   -0.5950    0.0000 C.3     1  UNL1        0.0652
      5 C           3.7320   -0.0950    0.0000 C.3     1  UNL1       -0.0120
      6 C           4.5981    1.4050    0.0000 C.3     1  UNL1       -0.0467
      7 C           3.7320    0.9050    0.0000 C.3     1  UNL1       -0.0471
      8 C           6.3580    1.4397    0.0000 C.3     1  UNL1       -0.0467
      9 C           6.3580   -0.6297    0.0000 C.2     1  UNL1       -0.0706
     10 C           7.2641    0.9258    0.0000 C.3     1  UNL1       -0.0489
     11 C           5.4641    1.9050    0.0000 C.3     1  UNL1       -0.0589
     12 C           2.8660   -0.5950    0.0000 C.3     1  UNL1       -0.0415
     13 C           7.2641   -0.1158    0.0000 C.3     1  UNL1       -0.0316
     14 C           2.0000   -0.0950    0.0000 C.3     1  UNL1       -0.0623
     15 C           2.8660   -1.5950    0.0000 C.3     1  UNL1       -0.0623
     16 C           6.3465   -1.6296    0.0000 C.2     1  UNL1       -0.0991
     17 H           6.2035    0.3243    0.0000 H       1  UNL1        0.0376
     18 H           5.1350   -0.9050    0.0000 H       1  UNL1        0.0602
     19 H           3.7320   -0.7150    0.0000 H       1  UNL1        0.0328
     20 H           4.9966    1.8800    0.0000 H       1  UNL1        0.0271
     21 H           4.1996    1.8800    0.0000 H       1  UNL1        0.0271
     22 H           3.5200    1.4876    0.0000 H       1  UNL1        0.0269
     23 H           3.1215    0.7973    0.0000 H       1  UNL1        0.0269
     24 H           6.7517    1.9187    0.0000 H       1  UNL1        0.0271
     25 H           5.9534    1.9094    0.0000 H       1  UNL1        0.0271
     26 H           7.8750    0.8197    0.0000 H       1  UNL1        0.0268
     27 H           7.4732    1.5095    0.0000 H       1  UNL1        0.0268
     28 H           6.0841    1.9050    0.0000 H       1  UNL1        0.0235
     29 H           5.4641    2.5250    0.0000 H       1  UNL1        0.0235
     30 H           4.8441    1.9050    0.0000 H       1  UNL1        0.0235
     31 H           2.8660    0.0250    0.0000 H       1  UNL1        0.0299
     32 H           7.4732   -0.6995    0.0000 H       1  UNL1        0.0310
     33 H           7.8750   -0.0097    0.0000 H       1  UNL1        0.0310
     34 H           4.0611   -1.9050    0.0000 H       1  UNL1        0.2098
     35 H           2.3100    0.4419    0.0000 H       1  UNL1        0.0232
     36 H           1.4631    0.2150    0.0000 H       1  UNL1        0.0232
     37 H           1.6900   -0.6319    0.0000 H       1  UNL1        0.0232
     38 H           2.2460   -1.5950    0.0000 H       1  UNL1        0.0232
     39 H           2.8660   -2.2150    0.0000 H       1  UNL1        0.0232
     40 H           3.4860   -1.5950    0.0000 H       1  UNL1        0.0232
     41 H           5.8060   -1.9334    0.0000 H       1  UNL1        0.0535
     42 H           6.8798   -1.9458    0.0000 H       1  UNL1        0.0535
@<TRIPOS>BOND
     1     4     1    1
     2     1    34    1
     3     2     3    1
     4     2     6    1
     5     2     8    1
     6     2    11    1
     7     3     4    1
     8     3     9    1
     9     3    17    1
    10     4     5    1
    11     4    18    1
    12     5     7    1
    13     5    12    1
    14     5    19    1
    15     6     7    1
    16     6    20    1
    17     6    21    1
    18     7    22    1
    19     7    23    1
    20     8    10    1
    21     8    24    1
    22     8    25    1
    23     9    13    1
    24     9    16    2
    25    10    13    1
    26    10    26    1
    27    10    27    1
    28    11    28    1
    29    11    29    1
    30    11    30    1
    31    12    14    1
    32    12    15    1
    33    12    31    1
    34    13    32    1
    35    13    33    1
    36    14    35    1
    37    14    36    1
    38    14    37    1
    39    15    38    1
    40    15    39    1
    41    15    40    1
    42    16    41    1
    43    16    42    1
