@<TRIPOS>MOLECULE
IMPHY002365
 18 19 0 0 0
SMALL
GASTEIGER

@<TRIPOS>ATOM
      1 C           5.1956    1.9991    0.0000 C.ar    1  UNL1        0.0107
      2 CA          4.3287    1.4983    0.0000 C.3     1  UNL1        0.2279
      3 C           5.1956    2.9986    0.0000 C.ar    1  UNL1       -0.0019
      4 C           6.0606    1.4983    0.0000 C.ar    1  UNL1       -0.0019
      5 C           4.3287    0.4988    0.0000 C.2     1  UNL1        0.3908
      6 N           3.4638    1.9991    0.0000 N.2     1  UNL1       -0.2549
      7 C           6.0606    3.4994    0.0000 C.ar    1  UNL1       -0.0002
      8 C           6.9275    1.9991    0.0000 C.ar    1  UNL1       -0.0002
      9 O           3.4638    0.0000    0.0000 O.co2   1  UNL1       -0.2431
     10 OXT         5.1956    0.0000    0.0000 O.co2   1  UNL1       -0.2431
     11 C           2.5968    1.4983    0.0000 C.2     1  UNL1        0.0941
     12 C           6.9275    2.9986    0.0000 C.ar    1  UNL1       -0.0000
     13 C           1.7319    1.9991    0.0000 C.ar    1  UNL1        0.0187
     14 C           0.8649    1.4983    0.0000 C.ar    1  UNL1        0.0015
     15 C           1.7319    2.9986    0.0000 C.ar    1  UNL1        0.0015
     16 C           0.0000    1.9991    0.0000 C.ar    1  UNL1        0.0000
     17 C           0.8649    3.4994    0.0000 C.ar    1  UNL1        0.0000
     18 C           0.0000    2.9986    0.0000 C.ar    1  UNL1        0.0000
@<TRIPOS>BOND
     1     1     2    1
     2     1     3   ar
     3     1     4   ar
     4     2     5    1
     5     2     6    1
     6     3     7   ar
     7     4     8   ar
     8     5     9   ar
     9     5    10   ar
    10     6    11    2
    11     7    12   ar
    12     8    12   ar
    13    11    13    1
    14    13    14   ar
    15    13    15   ar
    16    14    16   ar
    17    15    17   ar
    18    16    18   ar
    19    17    18   ar
