@<TRIPOS>MOLECULE
IMPHY013728
 37 37 0 0 0
SMALL
GASTEIGER

@<TRIPOS>ATOM
      1 O           4.2690   -2.5600    0.0000 O.3     1  ASP1       -0.4793
      2 OXT         5.1350   -4.0600    0.0000 O.2     1  ASP1       -0.2489
      3 O           9.4651   -2.5600    0.0000 O.3     1  ASP1       -0.4763
      4 OXT         8.5991   -4.0600    0.0000 O.2     1  ASP1       -0.2437
      5 O           4.2690    3.4400    0.0000 O.3     1  ASP1       -0.4791
      6 OD1         2.5369    1.4400    0.0000 O.3     1  ASP1       -0.4806
      7 OXT         6.0010    3.4400    0.0000 O.2     1  ASP1       -0.2486
      8 OD2         3.4030    2.9400    0.0000 O.2     1  ASP1       -0.2509
      9 N           6.8671   -3.0600    0.0000 N.pl3   1  ASP1       -0.3256
     10 N           6.0010    1.4400    0.0000 N.2     1  ASP1       -0.2764
     11 CA          6.0010   -2.5600    0.0000 C.3     1  ASP1        0.1224
     12 C           6.0010   -1.5600    0.0000 C.3     1  ASP1        0.0013
     13 C           6.8671   -1.0600    0.0000 C.2     1  ASP1       -0.0417
     14 CA          7.7331   -2.5600    0.0000 C.2     1  ASP1        0.1130
     15 C           7.7331   -1.5600    0.0000 C.2     1  ASP1       -0.0306
     16 C           5.1350   -3.0600    0.0000 C.2     1  ASP1        0.3255
     17 C           6.8671   -0.0600    0.0000 C.2     1  ASP1       -0.0407
     18 CA          5.1350    1.9400    0.0000 C.3     1  ASP1        0.1570
     19 C           6.0010    0.4400    0.0000 C.2     1  ASP1        0.0234
     20 C           8.5991   -3.0600    0.0000 C.2     1  ASP1        0.3508
     21 CB          4.2690    1.4400    0.0000 C.3     1  ASP1        0.0774
     22 C           5.1350    2.9400    0.0000 C.2     1  ASP1        0.3300
     23 CG          3.4030    1.9400    0.0000 C.2     1  ASP1        0.3073
     24 HA          6.0010   -3.1800    0.0000 H       1  ASP1        0.0617
     25 H           5.7890   -0.9774    0.0000 H       1  ASP1        0.0337
     26 H           5.3905   -1.6677    0.0000 H       1  ASP1        0.0337
     27 H           6.8671   -3.6800    0.0000 H       1  ASP1        0.1471
     28 H           8.2700   -1.2500    0.0000 H       1  ASP1        0.0641
     29 H           7.4040    0.2500    0.0000 H       1  ASP1        0.0635
     30 HA          5.1350    1.3200    0.0000 H       1  ASP1        0.0666
     31 H           5.4641    0.1300    0.0000 H       1  ASP1        0.0825
     32 HB1         3.8705    0.9651    0.0000 H       1  ASP1        0.0404
     33 HB2         4.6675    0.9651    0.0000 H       1  ASP1        0.0404
     34 H           3.7320   -2.8700    0.0000 H       1  ASP1        0.2951
     35 H          10.0021   -2.8700    0.0000 H       1  ASP1        0.2954
     36 H           4.2690    4.0600    0.0000 H       1  ASP1        0.2951
     37 HD1         2.0000    1.7500    0.0000 H       1  ASP1        0.2951
@<TRIPOS>BOND
     1     1    16    1
     2     1    34    1
     3     2    16    2
     4     3    20    1
     5     3    35    1
     6     4    20    2
     7     5    22    1
     8     5    36    1
     9     6    23    1
    10     6    37    1
    11     7    22    2
    12     8    23    2
    13     9    11    1
    14     9    14    1
    15     9    27    1
    16    10    18    1
    17    10    19    2
    18    11    12    1
    19    11    16    1
    20    11    24    1
    21    12    13    1
    22    12    25    1
    23    12    26    1
    24    13    15    1
    25    13    17    2
    26    14    15    2
    27    14    20    1
    28    15    28    1
    29    17    19    1
    30    17    29    1
    31    18    21    1
    32    18    22    1
    33    18    30    1
    34    19    31    1
    35    21    23    1
    36    21    32    1
    37    21    33    1
