@<TRIPOS>MOLECULE
IMPHY001128
 62 63 0 0 0
SMALL
GASTEIGER

@<TRIPOS>ATOM
      1 O           6.0010   -0.8450    0.0000 O.3     1  UNL1       -0.3422
      2 O           4.2690   -0.8450    0.0000 O.3     1  UNL1       -0.3431
      3 O           6.0010   -2.8450    0.0000 O.3     1  UNL1       -0.3841
      4 O           4.2690   -3.8450    0.0000 O.3     1  UNL1       -0.3864
      5 O           2.5369   -2.8450    0.0000 O.3     1  UNL1       -0.3866
      6 C           6.0010    0.1550    0.0000 C.3     1  UNL1        0.0732
      7 C           6.0010    1.1550    0.0000 C.3     1  UNL1       -0.0083
      8 C           6.8671    1.6550    0.0000 C.3     1  UNL1       -0.0436
      9 C           5.1350    1.6550    0.0000 C.3     1  UNL1       -0.0291
     10 C           7.0010    0.1550    0.0000 C.3     1  UNL1       -0.0202
     11 C           5.1350   -1.3450    0.0000 C.3     1  UNL1        0.1884
     12 C           5.0010    0.1550    0.0000 C.3     1  UNL1       -0.0354
     13 C           6.8671    2.6550    0.0000 C.3     1  UNL1       -0.0317
     14 C           5.1350   -2.3450    0.0000 C.3     1  UNL1        0.1341
     15 C           4.2690   -2.8450    0.0000 C.3     1  UNL1        0.1140
     16 C           3.4030   -2.3450    0.0000 C.3     1  UNL1        0.1095
     17 C           5.1350    2.6550    0.0000 C.2     1  UNL1       -0.0847
     18 C           3.4030   -1.3450    0.0000 C.3     1  UNL1        0.0873
     19 C           6.0010    3.1550    0.0000 C.2     1  UNL1       -0.0765
     20 C           7.5010   -0.7110    0.0000 C.3     1  UNL1       -0.0319
     21 C           2.5369   -0.8450    0.0000 C.3     1  UNL1       -0.0361
     22 C           6.0010    4.1550    0.0000 C.3     1  UNL1       -0.0438
     23 C           8.5010   -0.7110    0.0000 C.2     1  UNL1       -0.0852
     24 C           9.0010   -1.5770    0.0000 C.2     1  UNL1       -0.0796
     25 C          10.0010   -1.5770    0.0000 C.3     1  UNL1       -0.0440
     26 C           8.5010   -2.4431    0.0000 C.3     1  UNL1       -0.0440
     27 H           6.7372    0.7300    0.0000 H       1  UNL1        0.0331
     28 H           7.0791    1.0724    0.0000 H       1  UNL1        0.0272
     29 H           7.4776    1.7627    0.0000 H       1  UNL1        0.0272
     30 H           4.5244    1.7627    0.0000 H       1  UNL1        0.0311
     31 H           4.9230    1.0724    0.0000 H       1  UNL1        0.0311
     32 H           7.5836    0.3671    0.0000 H       1  UNL1        0.0296
     33 H           6.8934    0.7656    0.0000 H       1  UNL1        0.0296
     34 H           5.6720   -1.6550    0.0000 H       1  UNL1        0.0938
     35 H           5.0010    0.7750    0.0000 H       1  UNL1        0.0257
     36 H           4.3810    0.1550    0.0000 H       1  UNL1        0.0257
     37 H           5.0010   -0.4650    0.0000 H       1  UNL1        0.0257
     38 H           7.4776    2.5473    0.0000 H       1  UNL1        0.0310
     39 H           7.0791    3.2376    0.0000 H       1  UNL1        0.0310
     40 H           5.1350   -2.9650    0.0000 H       1  UNL1        0.0671
     41 H           3.7320   -3.1550    0.0000 H       1  UNL1        0.0648
     42 H           2.8660   -2.0350    0.0000 H       1  UNL1        0.0646
     43 H           4.5981    2.9650    0.0000 H       1  UNL1        0.0572
     44 H           3.4030   -0.7250    0.0000 H       1  UNL1        0.0621
     45 H           6.9184   -0.9231    0.0000 H       1  UNL1        0.0308
     46 H           7.6087   -1.3216    0.0000 H       1  UNL1        0.0308
     47 H           2.8469   -0.3081    0.0000 H       1  UNL1        0.0255
     48 H           2.0000   -0.5350    0.0000 H       1  UNL1        0.0255
     49 H           2.2269   -1.3819    0.0000 H       1  UNL1        0.0255
     50 H           6.6210    4.1550    0.0000 H       1  UNL1        0.0274
     51 H           6.0010    4.7750    0.0000 H       1  UNL1        0.0274
     52 H           5.3810    4.1550    0.0000 H       1  UNL1        0.0274
     53 H           8.8110   -0.1741    0.0000 H       1  UNL1        0.0571
     54 H           6.0010   -3.4650    0.0000 H       1  UNL1        0.2101
     55 H           3.7320   -4.1550    0.0000 H       1  UNL1        0.2100
     56 H           2.0000   -2.5350    0.0000 H       1  UNL1        0.2100
     57 H           7.9641   -2.1331    0.0000 H       1  UNL1        0.0274
     58 H           8.1910   -2.9800    0.0000 H       1  UNL1        0.0274
     59 H           9.0380   -2.7531    0.0000 H       1  UNL1        0.0274
     60 H          10.0010   -2.1970    0.0000 H       1  UNL1        0.0274
     61 H          10.6210   -1.5770    0.0000 H       1  UNL1        0.0274
     62 H          10.0010   -0.9571    0.0000 H       1  UNL1        0.0274
@<TRIPOS>BOND
     1     1     6    1
     2    11     1    1
     3     2    11    1
     4     2    18    1
     5    14     3    1
     6     3    54    1
     7    15     4    1
     8     4    55    1
     9    16     5    1
    10     5    56    1
    11     6     7    1
    12     6    10    1
    13     6    12    1
    14     7     8    1
    15     7     9    1
    16     7    27    1
    17     8    13    1
    18     8    28    1
    19     8    29    1
    20     9    17    1
    21     9    30    1
    22     9    31    1
    23    10    20    1
    24    10    32    1
    25    10    33    1
    26    11    14    1
    27    11    34    1
    28    12    35    1
    29    12    36    1
    30    12    37    1
    31    13    19    1
    32    13    38    1
    33    13    39    1
    34    14    15    1
    35    14    40    1
    36    15    16    1
    37    15    41    1
    38    16    18    1
    39    16    42    1
    40    17    19    2
    41    17    43    1
    42    18    21    1
    43    18    44    1
    44    19    22    1
    45    20    23    1
    46    20    45    1
    47    20    46    1
    48    21    47    1
    49    21    48    1
    50    21    49    1
    51    22    50    1
    52    22    51    1
    53    22    52    1
    54    23    24    2
    55    23    53    1
    56    24    25    1
    57    24    26    1
    58    25    60    1
    59    25    61    1
    60    25    62    1
    61    26    57    1
    62    26    58    1
    63    26    59    1
