@<TRIPOS>MOLECULE
IMPHY013591
 40 42 0 0 0
SMALL
GASTEIGER

@<TRIPOS>ATOM
      1 O           2.6735   -2.5477    0.0000 O.3     1  UNL1       -0.3650
      2 O           4.3145    1.8519    0.0000 O.3     1  UNL1       -0.4562
      3 O           5.9489    2.5477    0.0000 O.2     1  UNL1       -0.2502
      4 C           3.4397   -1.9045    0.0000 C.3     1  UNL1        0.0932
      5 C           2.5000   -1.5624    0.0000 C.3     1  UNL1        0.0884
      6 C           4.7057    0.2884    0.0000 C.3     1  UNL1        0.0154
      7 C           4.3794   -1.5624    0.0000 C.3     1  UNL1       -0.0211
      8 C           4.8794   -0.6964    0.0000 C.3     1  UNL1       -0.0429
      9 C           5.5474    0.8174    0.0000 C.3     1  UNL1        0.0686
     10 C           3.9397    0.9312    0.0000 C.3     1  UNL1        0.1277
     11 C           2.0000   -0.6964    0.0000 C.3     1  UNL1       -0.0201
     12 C           4.3794   -2.2465    0.0000 C.3     1  UNL1       -0.0334
     13 C           2.1736    0.2884    0.0000 C.3     1  UNL1       -0.0261
     14 C           2.9397    0.9312    0.0000 C.2     1  UNL1       -0.0363
     15 C           5.3061    1.7817    0.0000 C.2     1  UNL1        0.3138
     16 C           6.5173    1.0610    0.0000 C.3     1  UNL1       -0.0493
     17 C           6.0788   -0.0298    0.0000 C.3     1  UNL1       -0.0493
     18 C           2.5977    1.8709    0.0000 C.2     1  UNL1       -0.0960
     19 H           1.9174   -1.7744    0.0000 H       1  UNL1        0.0625
     20 H           5.4827   -0.0563    0.0000 H       1  UNL1        0.0350
     21 H           4.4154   -2.1814    0.0000 H       1  UNL1        0.0294
     22 H           4.9827   -1.7054    0.0000 H       1  UNL1        0.0294
     23 H           5.3049   -1.1474    0.0000 H       1  UNL1        0.0270
     24 H           5.4334   -0.4182    0.0000 H       1  UNL1        0.0270
     25 H           3.4653    1.6365    0.0000 H       1  UNL1        0.0785
     26 H           1.4460   -0.4182    0.0000 H       1  UNL1        0.0294
     27 H           1.5745   -1.1474    0.0000 H       1  UNL1        0.0294
     28 H           4.1673   -2.8291    0.0000 H       1  UNL1        0.0258
     29 H           4.9620   -2.4585    0.0000 H       1  UNL1        0.0258
     30 H           4.5914   -1.6639    0.0000 H       1  UNL1        0.0258
     31 H           1.9281    0.8577    0.0000 H       1  UNL1        0.0312
     32 H           1.5578    0.2164    0.0000 H       1  UNL1        0.0312
     33 H           6.6683    0.4596    0.0000 H       1  UNL1        0.0240
     34 H           7.1186    1.2120    0.0000 H       1  UNL1        0.0240
     35 H           6.3662    1.6623    0.0000 H       1  UNL1        0.0240
     36 H           5.5536   -0.3592    0.0000 H       1  UNL1        0.0240
     37 H           6.4082   -0.5550    0.0000 H       1  UNL1        0.0240
     38 H           6.6040    0.2997    0.0000 H       1  UNL1        0.0240
     39 H           2.9962    2.3458    0.0000 H       1  UNL1        0.0536
     40 H           1.9871    1.9785    0.0000 H       1  UNL1        0.0536
@<TRIPOS>BOND
     1     1     4    1
     2     1     5    1
     3     2    10    1
     4     2    15    1
     5     3    15    2
     6     4     5    1
     7     4     7    1
     8     4    12    1
     9     5    11    1
    10     5    19    1
    11     6     8    1
    12     6     9    1
    13     6    10    1
    14     6    20    1
    15     7     8    1
    16     7    21    1
    17     7    22    1
    18     8    23    1
    19     8    24    1
    20     9    15    1
    21     9    16    1
    22     9    17    1
    23    10    14    1
    24    10    25    1
    25    11    13    1
    26    11    26    1
    27    11    27    1
    28    12    28    1
    29    12    29    1
    30    12    30    1
    31    13    14    1
    32    13    31    1
    33    13    32    1
    34    14    18    2
    35    16    33    1
    36    16    34    1
    37    16    35    1
    38    17    36    1
    39    17    37    1
    40    17    38    1
    41    18    39    1
    42    18    40    1
