@<TRIPOS>MOLECULE
IMPHY004424
 41 42 0 0 0
SMALL
GASTEIGER

@<TRIPOS>ATOM
      1 O           2.8660   -4.7500    0.0000 O.3     1  UNL1       -0.4914
      2 O           8.0622    1.2500    0.0000 O.2     1  UNL1       -0.2904
      3 O           4.5981   -5.7500    0.0000 O.3     1  UNL1       -0.5033
      4 O           7.1962    5.7500    0.0000 O.3     1  UNL1       -0.5068
      5 O           4.5981    0.2500    0.0000 O.2     1  UNL1       -0.2708
      6 N           6.3301    0.2500    0.0000 N.am    1  UNL1       -0.3045
      7 C           6.3301    1.2500    0.0000 C.3     1  UNL1        0.0750
      8 C           7.1962    2.7500    0.0000 C.ar    1  UNL1        0.0192
      9 C           4.5981   -2.7500    0.0000 C.ar    1  UNL1       -0.0212
     10 C           7.1962    1.7500    0.0000 C.2     1  UNL1        0.1801
     11 C           3.7320   -3.2500    0.0000 C.ar    1  UNL1       -0.0092
     12 C           3.7320   -4.2500    0.0000 C.ar    1  UNL1        0.1618
     13 C           5.4641   -3.2500    0.0000 C.ar    1  UNL1       -0.0509
     14 C           8.0622    3.2500    0.0000 C.ar    1  UNL1       -0.0478
     15 C           6.3301    3.2500    0.0000 C.ar    1  UNL1       -0.0478
     16 C           4.5981   -1.7500    0.0000 C.2     1  UNL1       -0.0496
     17 C           4.5981   -4.7500    0.0000 C.ar    1  UNL1        0.1585
     18 C           5.4641   -4.2500    0.0000 C.ar    1  UNL1       -0.0160
     19 C           5.4641   -0.2500    0.0000 C.2     1  UNL1        0.2373
     20 C           5.4641   -1.2500    0.0000 C.2     1  UNL1        0.0007
     21 C           8.0622    4.2500    0.0000 C.ar    1  UNL1       -0.0195
     22 C           6.3301    4.2500    0.0000 C.ar    1  UNL1       -0.0195
     23 C           7.1962    4.7500    0.0000 C.ar    1  UNL1        0.1169
     24 C           2.0000   -4.2500    0.0000 C.3     1  UNL1        0.0790
     25 H           6.1181    1.8326    0.0000 H       1  UNL1        0.0544
     26 H           5.7196    1.1423    0.0000 H       1  UNL1        0.0544
     27 H           3.1951   -2.9400    0.0000 H       1  UNL1        0.0661
     28 H           6.8671   -0.0600    0.0000 H       1  UNL1        0.1494
     29 H           6.0010   -2.9400    0.0000 H       1  UNL1        0.0625
     30 H           8.5991    2.9400    0.0000 H       1  UNL1        0.0626
     31 H           5.7932    2.9400    0.0000 H       1  UNL1        0.0626
     32 H           4.0611   -1.4400    0.0000 H       1  UNL1        0.0625
     33 H           6.0010   -4.5600    0.0000 H       1  UNL1        0.0655
     34 H           6.0010   -1.5600    0.0000 H       1  UNL1        0.0669
     35 H           8.5991    4.5600    0.0000 H       1  UNL1        0.0654
     36 H           5.7932    4.5600    0.0000 H       1  UNL1        0.0654
     37 H           5.1350   -6.0600    0.0000 H       1  UNL1        0.2923
     38 H           2.3100   -3.7131    0.0000 H       1  UNL1        0.0660
     39 H           1.4631   -3.9400    0.0000 H       1  UNL1        0.0660
     40 H           1.6900   -4.7869    0.0000 H       1  UNL1        0.0660
     41 H           7.7331    6.0600    0.0000 H       1  UNL1        0.2921
@<TRIPOS>BOND
     1     1    12    1
     2     1    24    1
     3     2    10    2
     4     3    17    1
     5     3    37    1
     6     4    23    1
     7     4    41    1
     8     5    19    2
     9     6     7    1
    10     6    19   am
    11     6    28    1
    12     7    10    1
    13     7    25    1
    14     7    26    1
    15     8    10    1
    16     8    14   ar
    17     8    15   ar
    18     9    11   ar
    19     9    13   ar
    20     9    16    1
    21    11    12   ar
    22    11    27    1
    23    12    17   ar
    24    13    18   ar
    25    13    29    1
    26    14    21   ar
    27    14    30    1
    28    15    22   ar
    29    15    31    1
    30    16    20    2
    31    16    32    1
    32    17    18   ar
    33    18    33    1
    34    19    20    1
    35    20    34    1
    36    21    23   ar
    37    21    35    1
    38    22    23   ar
    39    22    36    1
    40    24    38    1
    41    24    39    1
    42    24    40    1
