@<TRIPOS>MOLECULE
IMPHY008292
 79 84 0 0 0
SMALL
GASTEIGER

@<TRIPOS>ATOM
      1 O           8.9864   -3.7657    0.0000 O.3     1  UNL1       -0.4608
      2 O           6.3744   -0.2373    0.0000 O.3     1  UNL1       -0.4537
      3 O           9.5496    0.1438    0.0000 O.3     1  UNL1       -0.3847
      4 O           8.1403    0.8005    0.0000 O.3     1  UNL1       -0.4549
      5 O           5.5138   -0.7342    0.0000 O.2     1  UNL1       -0.2929
      6 O           3.7320   -1.7446    0.0000 O.3     1  UNL1       -0.4538
      7 O          10.7079   -3.7985    0.0000 O.2     1  UNL1       -0.2508
      8 O           7.2230    1.2726    0.0000 O.2     1  UNL1       -0.2449
      9 O           9.8723    0.8072    0.0000 O.2     1  UNL1       -0.2512
     10 O           2.8602   -3.2413    0.0000 O.2     1  UNL1       -0.2511
     11 O           4.3873    3.7118    0.0000 O.3     1  UNL1       -0.4526
     12 O           3.0029    2.8910    0.0000 O.3     1  UNL1       -0.4526
     13 C           8.1282   -2.2688    0.0000 C.3     1  UNL1        0.0182
     14 C           7.2622   -1.7688    0.0000 C.3     1  UNL1        0.0213
     15 C           6.3961   -2.2688    0.0000 C.3     1  UNL1        0.0397
     16 C           9.0382   -1.7619    0.0000 C.3     1  UNL1        0.0104
     17 C           8.1282   -3.2688    0.0000 C.3     1  UNL1        0.1094
     18 C           6.3961   -3.2688    0.0000 C.3     1  UNL1       -0.0249
     19 C           7.2461   -0.7273    0.0000 C.3     1  UNL1        0.1471
     20 C           9.0462   -0.7203    0.0000 C.3     1  UNL1        0.1074
     21 C           7.2622   -3.7688    0.0000 C.3     1  UNL1       -0.0114
     22 C           8.1441   -0.1995    0.0000 C.3     1  UNL1        0.1684
     23 C           8.1282   -1.2688    0.0000 C.3     1  UNL1       -0.0554
     24 C           9.8775   -2.2901    0.0000 C.3     1  UNL1        0.0511
     25 C           5.5022   -3.8034    0.0000 C.3     1  UNL1       -0.0454
     26 C           5.5022   -1.7341    0.0000 C.2     1  UNL1        0.1800
     27 C           6.3961   -1.2688    0.0000 C.3     1  UNL1       -0.0520
     28 C           4.5961   -2.2479    0.0000 C.3     1  UNL1        0.1610
     29 C           4.5961   -3.2896    0.0000 C.3     1  UNL1       -0.0083
     30 C          10.0462   -0.7242    0.0000 C.3     1  UNL1       -0.0322
     31 C           9.8519   -3.2815    0.0000 C.2     1  UNL1        0.3077
     32 C           6.3628    0.7626    0.0000 C.2     1  UNL1        0.3397
     33 C           9.0044    1.3038    0.0000 C.2     1  UNL1        0.3044
     34 C           2.8641   -2.2413    0.0000 C.2     1  UNL1        0.3046
     35 C           5.4910    1.2526    0.0000 C.ar    1  UNL1        0.0627
     36 C           9.0005    2.3038    0.0000 C.3     1  UNL1        0.0332
     37 C           2.0000   -1.7379    0.0000 C.3     1  UNL1        0.0333
     38 C           5.4795    2.2525    0.0000 C.ar    1  UNL1       -0.0022
     39 C           4.6309    0.7426    0.0000 C.ar    1  UNL1       -0.0441
     40 C           4.6077    2.7425    0.0000 C.ar    1  UNL1        0.1670
     41 C           3.7591    1.2326    0.0000 C.ar    1  UNL1       -0.0154
     42 C           3.7475    2.2325    0.0000 C.ar    1  UNL1        0.1663
     43 C           3.3974    3.8034    0.0000 C.3     1  UNL1        0.2332
     44 H           6.5228   -1.3494    0.0000 H       1  UNL1        0.0354
     45 H           9.7839   -1.3539    0.0000 H       1  UNL1        0.0341
     46 H           8.1277   -4.1188    0.0000 H       1  UNL1        0.0739
     47 H           6.4027   -4.1187    0.0000 H       1  UNL1        0.0311
     48 H           7.2401   -0.1073    0.0000 H       1  UNL1        0.0776
     49 H           6.8636   -4.2437    0.0000 H       1  UNL1        0.0304
     50 H           7.6607   -4.2437    0.0000 H       1  UNL1        0.0304
     51 H           7.6054    0.1074    0.0000 H       1  UNL1        0.0801
     52 H           8.7482   -1.2688    0.0000 H       1  UNL1        0.0236
     53 H           8.1282   -0.6488    0.0000 H       1  UNL1        0.0236
     54 H           7.5082   -1.2688    0.0000 H       1  UNL1        0.0236
     55 H          10.4846   -2.4160    0.0000 H       1  UNL1        0.0381
     56 H          10.1093   -1.7151    0.0000 H       1  UNL1        0.0381
     57 H           5.1086   -4.2824    0.0000 H       1  UNL1        0.0269
     58 H           5.9068   -4.2732    0.0000 H       1  UNL1        0.0269
     59 H           7.0161   -1.2688    0.0000 H       1  UNL1        0.0239
     60 H           6.3961   -0.6488    0.0000 H       1  UNL1        0.0239
     61 H           5.7761   -1.2688    0.0000 H       1  UNL1        0.0239
     62 H           4.5997   -1.6280    0.0000 H       1  UNL1        0.0815
     63 H           3.9853   -3.1835    0.0000 H       1  UNL1        0.0305
     64 H           4.3871   -3.8733    0.0000 H       1  UNL1        0.0305
     65 H          10.0438   -1.3442    0.0000 H       1  UNL1        0.0259
     66 H          10.6662   -0.7266    0.0000 H       1  UNL1        0.0259
     67 H          10.0486   -0.1042    0.0000 H       1  UNL1        0.0259
     68 H          10.1695    0.1414    0.0000 H       1  UNL1        0.2103
     69 H           9.6205    2.3062    0.0000 H       1  UNL1        0.0342
     70 H           8.9981    2.9238    0.0000 H       1  UNL1        0.0342
     71 H           8.3805    2.3014    0.0000 H       1  UNL1        0.0342
     72 H           2.3121   -1.2022    0.0000 H       1  UNL1        0.0342
     73 H           1.4643   -1.4259    0.0000 H       1  UNL1        0.0342
     74 H           1.6879   -2.2737    0.0000 H       1  UNL1        0.0342
     75 H           6.0128    2.5687    0.0000 H       1  UNL1        0.0663
     76 H           4.6380    0.1226    0.0000 H       1  UNL1        0.0627
     77 H           3.2258    0.9164    0.0000 H       1  UNL1        0.0655
     78 H           3.5192    4.4114    0.0000 H       1  UNL1        0.1166
     79 H           2.8057    3.9884    0.0000 H       1  UNL1        0.1166
@<TRIPOS>BOND
     1     1    17    1
     2     1    31    1
     3    19     2    1
     4     2    32    1
     5    20     3    1
     6     3    68    1
     7    22     4    1
     8     4    33    1
     9     5    26    2
    10    28     6    1
    11     6    34    1
    12     7    31    2
    13     8    32    2
    14     9    33    2
    15    10    34    2
    16    11    40    1
    17    11    43    1
    18    12    42    1
    19    12    43    1
    20    13    14    1
    21    13    16    1
    22    13    17    1
    23    13    23    1
    24    14    15    1
    25    14    19    1
    26    14    44    1
    27    15    18    1
    28    15    26    1
    29    15    27    1
    30    16    20    1
    31    16    24    1
    32    16    45    1
    33    17    21    1
    34    17    46    1
    35    18    21    1
    36    18    25    1
    37    18    47    1
    38    19    22    1
    39    19    48    1
    40    20    22    1
    41    20    30    1
    42    21    49    1
    43    21    50    1
    44    22    51    1
    45    23    52    1
    46    23    53    1
    47    23    54    1
    48    24    31    1
    49    24    55    1
    50    24    56    1
    51    25    29    1
    52    25    57    1
    53    25    58    1
    54    26    28    1
    55    27    59    1
    56    27    60    1
    57    27    61    1
    58    28    29    1
    59    28    62    1
    60    29    63    1
    61    29    64    1
    62    30    65    1
    63    30    66    1
    64    30    67    1
    65    32    35    1
    66    33    36    1
    67    34    37    1
    68    35    38   ar
    69    35    39   ar
    70    36    69    1
    71    36    70    1
    72    36    71    1
    73    37    72    1
    74    37    73    1
    75    37    74    1
    76    38    40   ar
    77    38    75    1
    78    39    41   ar
    79    39    76    1
    80    40    42   ar
    81    41    42   ar
    82    41    77    1
    83    43    78    1
    84    43    79    1
