@<TRIPOS>MOLECULE
IMPHY001226
 34 35 0 0 0
SMALL
GASTEIGER

@<TRIPOS>ATOM
      1 O           6.5355   -0.5000    0.0000 O.3     1  UNL1       -0.5028
      2 O           6.5355    0.5000    0.0000 O.3     1  UNL1       -0.5028
      3 O           6.5355   -2.5000    0.0000 O.3     1  UNL1       -0.5009
      4 O           6.5355    2.5000    0.0000 O.3     1  UNL1       -0.5009
      5 O           4.8034   -3.5000    0.0000 O.3     1  UNL1       -0.5032
      6 O           4.8034    3.5000    0.0000 O.3     1  UNL1       -0.5032
      7 O           2.6105   -2.1133    0.0000 O.3     1  UNL1       -0.4771
      8 O           2.6106    2.1134    0.0000 O.3     1  UNL1       -0.4771
      9 O           2.3098    0.4076    0.0000 O.2     1  UNL1       -0.2451
     10 O           2.3098   -0.4076    0.0000 O.2     1  UNL1       -0.2451
     11 C           4.8034   -0.5000    0.0000 C.ar    1  UNL1        0.0458
     12 C           4.8034    0.5000    0.0000 C.ar    1  UNL1        0.0458
     13 C           3.9374   -1.0000    0.0000 C.ar    1  UNL1        0.0738
     14 C           3.9374    1.0000    0.0000 C.ar    1  UNL1        0.0738
     15 C           5.6695    1.0000    0.0000 C.ar    1  UNL1        0.1708
     16 C           5.6695   -1.0000    0.0000 C.ar    1  UNL1        0.1708
     17 C           3.9374   -2.0000    0.0000 C.ar    1  UNL1       -0.0017
     18 C           3.9374    2.0000    0.0000 C.ar    1  UNL1       -0.0017
     19 C           5.6695    2.0000    0.0000 C.ar    1  UNL1        0.2012
     20 C           5.6695   -2.0000    0.0000 C.ar    1  UNL1        0.2012
     21 C           4.8034   -2.5000    0.0000 C.ar    1  UNL1        0.1628
     22 C           4.8034    2.5000    0.0000 C.ar    1  UNL1        0.1628
     23 C           2.9526    1.1737    0.0000 C.2     1  UNL1        0.3376
     24 C           2.9526   -1.1736    0.0000 C.2     1  UNL1        0.3376
     25 H           3.4005    2.3100    0.0000 H       1  UNL1        0.0664
     26 H           3.4005   -2.3100    0.0000 H       1  UNL1        0.0664
     27 H           7.0724    0.8100    0.0000 H       1  UNL1        0.2923
     28 H           7.0724   -0.8100    0.0000 H       1  UNL1        0.2923
     29 H           6.5355    3.1200    0.0000 H       1  UNL1        0.2924
     30 H           6.5355   -3.1200    0.0000 H       1  UNL1        0.2924
     31 H           4.2665    3.8100    0.0000 H       1  UNL1        0.2923
     32 H           4.2665   -3.8100    0.0000 H       1  UNL1        0.2923
     33 H           2.0000    2.2211    0.0000 H       1  UNL1        0.2954
     34 H           2.0000   -2.2210    0.0000 H       1  UNL1        0.2954
@<TRIPOS>BOND
     1     1    16    1
     2     1    28    1
     3     2    15    1
     4     2    27    1
     5     3    20    1
     6     3    30    1
     7     4    19    1
     8     4    29    1
     9     5    21    1
    10     5    32    1
    11     6    22    1
    12     6    31    1
    13     7    24    1
    14     7    34    1
    15     8    23    1
    16     8    33    1
    17     9    23    2
    18    10    24    2
    19    11    12    1
    20    11    13   ar
    21    11    16   ar
    22    12    14   ar
    23    12    15   ar
    24    13    17   ar
    25    13    24    1
    26    14    18   ar
    27    14    23    1
    28    15    19   ar
    29    16    20   ar
    30    17    21   ar
    31    17    26    1
    32    18    22   ar
    33    18    25    1
    34    19    22   ar
    35    20    21   ar
