@<TRIPOS>MOLECULE
IMPHY011347
 42 41 0 0 0
SMALL
GASTEIGER

@<TRIPOS>ATOM
      1 O           8.0622   -1.1900    0.0000 O.3     1  UNL1       -0.3944
      2 C           8.9282    0.3100    0.0000 C.3     1  UNL1        0.0062
      3 C           8.0622    0.8100    0.0000 C.3     1  UNL1       -0.0259
      4 C           7.1962    0.3100    0.0000 C.2     1  UNL1       -0.0844
      5 C           6.3301    0.8100    0.0000 C.2     1  UNL1       -0.0762
      6 C           8.9282   -0.6900    0.0000 C.3     1  UNL1        0.0510
      7 C           9.7942    0.8100    0.0000 C.2     1  UNL1       -0.0742
      8 C           5.4641    0.3100    0.0000 C.3     1  UNL1       -0.0286
      9 C           4.5981    0.8100    0.0000 C.3     1  UNL1       -0.0308
     10 C           6.3301    1.8100    0.0000 C.3     1  UNL1       -0.0438
     11 C          10.6603    0.3100    0.0000 C.3     1  UNL1       -0.0437
     12 C           3.7320    0.3100    0.0000 C.2     1  UNL1       -0.0850
     13 C           9.7942    1.8100    0.0000 C.2     1  UNL1       -0.0994
     14 C           2.8660    0.8100    0.0000 C.2     1  UNL1       -0.0796
     15 C           2.0000    0.3100    0.0000 C.3     1  UNL1       -0.0440
     16 C           2.8660    1.8100    0.0000 C.3     1  UNL1       -0.0440
     17 H           9.4651    0.0000    0.0000 H       1  UNL1        0.0371
     18 H           8.4607    1.2850    0.0000 H       1  UNL1        0.0314
     19 H           7.6636    1.2850    0.0000 H       1  UNL1        0.0314
     20 H           7.1962   -0.3100    0.0000 H       1  UNL1        0.0572
     21 H           9.1403   -1.2726    0.0000 H       1  UNL1        0.0563
     22 H           9.5388   -0.5823    0.0000 H       1  UNL1        0.0563
     23 H           5.0656   -0.1649    0.0000 H       1  UNL1        0.0313
     24 H           5.8626   -0.1649    0.0000 H       1  UNL1        0.0313
     25 H           4.9966    1.2850    0.0000 H       1  UNL1        0.0310
     26 H           4.1996    1.2850    0.0000 H       1  UNL1        0.0310
     27 H           6.9501    1.8100    0.0000 H       1  UNL1        0.0274
     28 H           6.3301    2.4300    0.0000 H       1  UNL1        0.0274
     29 H           5.7101    1.8100    0.0000 H       1  UNL1        0.0274
     30 H          10.3503   -0.2269    0.0000 H       1  UNL1        0.0274
     31 H          11.1972    0.0000    0.0000 H       1  UNL1        0.0274
     32 H          10.9703    0.8469    0.0000 H       1  UNL1        0.0274
     33 H           3.7320   -0.3100    0.0000 H       1  UNL1        0.0572
     34 H          10.3312    2.1200    0.0000 H       1  UNL1        0.0534
     35 H           9.2573    2.1200    0.0000 H       1  UNL1        0.0534
     36 H           8.0622   -1.8100    0.0000 H       1  UNL1        0.2094
     37 H           1.6900    0.8469    0.0000 H       1  UNL1        0.0274
     38 H           1.4631    0.0000    0.0000 H       1  UNL1        0.0274
     39 H           2.3100   -0.2269    0.0000 H       1  UNL1        0.0274
     40 H           3.4860    1.8100    0.0000 H       1  UNL1        0.0274
     41 H           2.8660    2.4300    0.0000 H       1  UNL1        0.0274
     42 H           2.2460    1.8100    0.0000 H       1  UNL1        0.0274
@<TRIPOS>BOND
     1     1     6    1
     2     1    36    1
     3     2     3    1
     4     2     6    1
     5     2     7    1
     6     2    17    1
     7     3     4    1
     8     3    18    1
     9     3    19    1
    10     4     5    2
    11     4    20    1
    12     5     8    1
    13     5    10    1
    14     6    21    1
    15     6    22    1
    16     7    11    1
    17     7    13    2
    18     8     9    1
    19     8    23    1
    20     8    24    1
    21     9    12    1
    22     9    25    1
    23     9    26    1
    24    10    27    1
    25    10    28    1
    26    10    29    1
    27    11    30    1
    28    11    31    1
    29    11    32    1
    30    12    14    2
    31    12    33    1
    32    13    34    1
    33    13    35    1
    34    14    15    1
    35    14    16    1
    36    15    37    1
    37    15    38    1
    38    15    39    1
    39    16    40    1
    40    16    41    1
    41    16    42    1
