@<TRIPOS>MOLECULE
IMPHY013934
 61 65 0 0 0
SMALL
GASTEIGER

@<TRIPOS>ATOM
      1 O           5.0519   -2.1010    0.0000 O.3     1  UNL1       -0.4570
      2 O           6.3194   -0.1463    0.0000 O.3     1  UNL1       -0.3733
      3 O           7.0625   -0.8154    0.0000 O.3     1  UNL1       -0.4658
      4 O           6.8547   -1.7935    0.0000 O.2     1  UNL1       -0.2474
      5 O           6.3391   -3.2600    0.0000 O.2     1  UNL1       -0.2512
      6 N           2.6254    0.1277    0.0000 N.3     1  UNL1       -0.2939
      7 N           5.7049    1.1283    0.0000 N.pl3   1  UNL1       -0.3253
      8 C           4.1652    0.6280    0.0000 C.3     1  UNL1        0.0369
      9 C           3.5397   -0.0666    0.0000 C.3     1  UNL1        0.0348
     10 C           3.8286   -0.9556    0.0000 C.3     1  UNL1        0.0453
     11 C           5.0795    0.4337    0.0000 C.3     1  UNL1        0.0772
     12 C           5.3683   -0.4553    0.0000 C.3     1  UNL1        0.2195
     13 C           3.7801    1.6636    0.0000 C.3     1  UNL1       -0.0272
     14 C           4.7429   -1.1499    0.0000 C.3     1  UNL1        0.1542
     15 C           4.5018    2.2116    0.0000 C.ar    1  UNL1       -0.0168
     16 C           2.3366    1.0167    0.0000 C.3     1  UNL1        0.0005
     17 C           4.1376   -1.9066    0.0000 C.3     1  UNL1       -0.0418
     18 C           3.2031   -1.6502    0.0000 C.2     1  UNL1       -0.0755
     19 C           5.4161    2.0173    0.0000 C.ar    1  UNL1        0.0337
     20 C           2.0000   -0.5669    0.0000 C.3     1  UNL1        0.0175
     21 C           2.2888   -1.4559    0.0000 C.2     1  UNL1       -0.0733
     22 C           6.1115   -1.1244    0.0000 C.2     1  UNL1        0.3446
     23 C           4.2129    3.1006    0.0000 C.ar    1  UNL1       -0.0562
     24 C           6.6560    1.4373    0.0000 C.3     1  UNL1        0.0011
     25 C           3.4685   -2.6498    0.0000 C.3     1  UNL1       -0.0643
     26 C           6.0415    2.7119    0.0000 C.ar    1  UNL1       -0.0404
     27 C           4.8384    3.7952    0.0000 C.ar    1  UNL1       -0.0614
     28 C           5.7527    3.6008    0.0000 C.ar    1  UNL1       -0.0600
     29 C           5.3609   -3.0520    0.0000 C.2     1  UNL1        0.3043
     30 C           4.6918   -3.7952    0.0000 C.3     1  UNL1        0.0332
     31 C           7.8057   -1.4845    0.0000 C.3     1  UNL1        0.0818
     32 H           3.1249   -0.5274    0.0000 H       1  UNL1        0.0482
     33 H           5.6859    0.3048    0.0000 H       1  UNL1        0.0544
     34 H           4.3564    1.8923    0.0000 H       1  UNL1        0.0287
     35 H           3.5389    2.2348    0.0000 H       1  UNL1        0.0287
     36 H           5.3493   -1.2788    0.0000 H       1  UNL1        0.0779
     37 H           2.1034    1.5912    0.0000 H       1  UNL1        0.0427
     38 H           1.7542    0.8041    0.0000 H       1  UNL1        0.0427
     39 H           4.5193   -2.3952    0.0000 H       1  UNL1        0.0273
     40 H           4.6850   -1.6156    0.0000 H       1  UNL1        0.0273
     41 H           3.3947   -2.2399    0.0000 H       1  UNL1        0.0577
     42 H           1.6183   -0.0783    0.0000 H       1  UNL1        0.0470
     43 H           1.4526   -0.8580    0.0000 H       1  UNL1        0.0470
     44 H           1.8740   -1.9166    0.0000 H       1  UNL1        0.0582
     45 H           3.6065    3.2295    0.0000 H       1  UNL1        0.0621
     46 H           6.7342    0.3145    0.0000 H       1  UNL1        0.2111
     47 H           6.8476    0.8477    0.0000 H       1  UNL1        0.0428
     48 H           7.2456    1.6289    0.0000 H       1  UNL1        0.0428
     49 H           6.4644    2.0270    0.0000 H       1  UNL1        0.0428
     50 H           3.0077   -2.2349    0.0000 H       1  UNL1        0.0230
     51 H           3.0536   -3.1106    0.0000 H       1  UNL1        0.0230
     52 H           3.9292   -3.0647    0.0000 H       1  UNL1        0.0230
     53 H           6.6480    2.5830    0.0000 H       1  UNL1        0.0636
     54 H           4.6468    4.3848    0.0000 H       1  UNL1        0.0618
     55 H           6.1676    4.0616    0.0000 H       1  UNL1        0.0618
     56 H           4.2310   -3.3803    0.0000 H       1  UNL1        0.0342
     57 H           4.2769   -4.2559    0.0000 H       1  UNL1        0.0342
     58 H           5.1525   -4.2100    0.0000 H       1  UNL1        0.0342
     59 H           7.3908   -1.9453    0.0000 H       1  UNL1        0.0661
     60 H           8.2664   -1.8994    0.0000 H       1  UNL1        0.0661
     61 H           8.2205   -1.0238    0.0000 H       1  UNL1        0.0661
@<TRIPOS>BOND
     1     1    14    1
     2     1    29    1
     3     2    12    1
     4     2    46    1
     5     3    22    1
     6     3    31    1
     7     4    22    2
     8     5    29    2
     9     6     9    1
    10     6    16    1
    11     6    20    1
    12     7    11    1
    13     7    19    1
    14     7    24    1
    15     8     9    1
    16     8    11    1
    17     8    13    1
    18     8    15    1
    19     9    10    1
    20     9    32    1
    21    10    14    1
    22    10    17    1
    23    10    18    1
    24    11    12    1
    25    11    33    1
    26    12    14    1
    27    12    22    1
    28    13    16    1
    29    13    34    1
    30    13    35    1
    31    14    36    1
    32    15    19   ar
    33    15    23   ar
    34    16    37    1
    35    16    38    1
    36    17    25    1
    37    17    39    1
    38    17    40    1
    39    18    21    2
    40    18    41    1
    41    19    26   ar
    42    20    21    1
    43    20    42    1
    44    20    43    1
    45    21    44    1
    46    23    27   ar
    47    23    45    1
    48    24    47    1
    49    24    48    1
    50    24    49    1
    51    25    50    1
    52    25    51    1
    53    25    52    1
    54    26    28   ar
    55    26    53    1
    56    27    28   ar
    57    27    54    1
    58    28    55    1
    59    29    30    1
    60    30    56    1
    61    30    57    1
    62    30    58    1
    63    31    59    1
    64    31    60    1
    65    31    61    1
