@<TRIPOS>MOLECULE
IMPHY000441
 46 47 0 0 0
SMALL
GASTEIGER

@<TRIPOS>ATOM
      1 O           5.1350   -1.0950    0.0000 O.3     1  UNL1       -0.3313
      2 O           6.8671   -1.0950    0.0000 O.3     1  UNL1       -0.4572
      3 O           5.1350   -4.0950    0.0000 O.3     1  UNL1       -0.3864
      4 O           3.4030   -3.0950    0.0000 O.3     1  UNL1       -0.3865
      5 O           6.8671   -3.0950    0.0000 O.3     1  UNL1       -0.3829
      6 O           2.5369   -1.5950    0.0000 O.3     1  UNL1       -0.3924
      7 O           8.5991   -0.0950    0.0000 O.3     1  UNL1       -0.5033
      8 O           3.4030    2.9050    0.0000 O.2     1  UNL1       -0.2977
      9 C           5.1350   -3.0950    0.0000 C.3     1  UNL1        0.1152
     10 C           4.2690   -2.5950    0.0000 C.3     1  UNL1        0.1120
     11 C           6.0010   -2.5950    0.0000 C.3     1  UNL1        0.1454
     12 C           4.2690   -1.5950    0.0000 C.3     1  UNL1        0.1140
     13 C           6.0010   -1.5950    0.0000 C.3     1  UNL1        0.2310
     14 C           3.4030   -1.0950    0.0000 C.3     1  UNL1        0.0731
     15 C           6.8671   -0.0950    0.0000 C.ar    1  UNL1        0.1654
     16 C           6.0010    0.4050    0.0000 C.ar    1  UNL1       -0.0130
     17 C           6.0010    1.4050    0.0000 C.ar    1  UNL1       -0.0433
     18 C           7.7331    0.4050    0.0000 C.ar    1  UNL1        0.1586
     19 C           5.1350    1.9050    0.0000 C.3     1  UNL1       -0.0209
     20 C           6.8671    1.9050    0.0000 C.ar    1  UNL1       -0.0549
     21 C           7.7331    1.4050    0.0000 C.ar    1  UNL1       -0.0163
     22 C           5.1350    2.9050    0.0000 C.3     1  UNL1        0.0095
     23 C           4.2690    3.4050    0.0000 C.2     1  UNL1        0.1306
     24 C           4.2690    4.4050    0.0000 C.3     1  UNL1       -0.0061
     25 H           5.6720   -3.4050    0.0000 H       1  UNL1        0.0648
     26 H           4.2690   -3.2150    0.0000 H       1  UNL1        0.0647
     27 H           6.5380   -2.2850    0.0000 H       1  UNL1        0.0683
     28 H           4.2690   -0.9750    0.0000 H       1  UNL1        0.0647
     29 H           6.0010   -0.9750    0.0000 H       1  UNL1        0.1084
     30 H           3.8015   -0.6201    0.0000 H       1  UNL1        0.0584
     31 H           3.0044   -0.6201    0.0000 H       1  UNL1        0.0584
     32 H           4.5981   -4.4050    0.0000 H       1  UNL1        0.2100
     33 H           3.4030   -3.7150    0.0000 H       1  UNL1        0.2100
     34 H           6.8671   -3.7150    0.0000 H       1  UNL1        0.2102
     35 H           2.0000   -1.2850    0.0000 H       1  UNL1        0.2095
     36 H           5.4641    0.0950    0.0000 H       1  UNL1        0.0658
     37 H           4.5244    2.0127    0.0000 H       1  UNL1        0.0317
     38 H           4.9230    1.3224    0.0000 H       1  UNL1        0.0317
     39 H           6.8671    2.5250    0.0000 H       1  UNL1        0.0621
     40 H           8.2700    1.7150    0.0000 H       1  UNL1        0.0655
     41 H           5.7456    2.7973    0.0000 H       1  UNL1        0.0345
     42 H           5.3471    3.4876    0.0000 H       1  UNL1        0.0345
     43 H           9.1360    0.2150    0.0000 H       1  UNL1        0.2923
     44 H           4.8890    4.4050    0.0000 H       1  UNL1        0.0306
     45 H           4.2690    5.0250    0.0000 H       1  UNL1        0.0306
     46 H           3.6490    4.4050    0.0000 H       1  UNL1        0.0306
@<TRIPOS>BOND
     1     1    12    1
     2     1    13    1
     3    13     2    1
     4     2    15    1
     5     9     3    1
     6     3    32    1
     7    10     4    1
     8     4    33    1
     9    11     5    1
    10     5    34    1
    11     6    14    1
    12     6    35    1
    13     7    18    1
    14     7    43    1
    15     8    23    2
    16     9    10    1
    17     9    11    1
    18     9    25    1
    19    10    12    1
    20    10    26    1
    21    11    13    1
    22    11    27    1
    23    12    14    1
    24    12    28    1
    25    13    29    1
    26    14    30    1
    27    14    31    1
    28    15    16   ar
    29    15    18   ar
    30    16    17   ar
    31    16    36    1
    32    17    19    1
    33    17    20   ar
    34    18    21   ar
    35    19    22    1
    36    19    37    1
    37    19    38    1
    38    20    21   ar
    39    20    39    1
    40    21    40    1
    41    22    23    1
    42    22    41    1
    43    22    42    1
    44    23    24    1
    45    24    44    1
    46    24    45    1
    47    24    46    1
