@<TRIPOS>MOLECULE
IMPHY000142
 40 42 0 0 0
SMALL
GASTEIGER

@<TRIPOS>ATOM
      1 O           4.6497   -0.1031    0.0000 O.3     1  UNL1       -0.5031
      2 O           2.8680   -1.1135    0.0000 O.3     1  UNL1       -0.4914
      3 O           6.3981    2.8623    0.0000 O.3     1  UNL1       -0.5068
      4 N           7.2641   -2.6377    0.0000 N.3     1  UNL1       -0.3003
      5 C           6.3981   -1.1377    0.0000 C.3     1  UNL1        0.0258
      6 C           7.2641   -1.6377    0.0000 C.3     1  UNL1        0.0099
      7 C           5.5320   -1.6377    0.0000 C.ar    1  UNL1        0.0107
      8 C           6.3981   -3.1377    0.0000 C.3     1  UNL1        0.0242
      9 C           5.5320   -2.6377    0.0000 C.ar    1  UNL1       -0.0259
     10 C           6.3981   -0.1377    0.0000 C.ar    1  UNL1       -0.0384
     11 C           4.6381   -1.1030    0.0000 C.ar    1  UNL1        0.1626
     12 C           4.6381   -3.1723    0.0000 C.ar    1  UNL1       -0.0534
     13 C           8.1301   -3.1377    0.0000 C.3     1  UNL1       -0.0124
     14 C           3.7320   -1.6168    0.0000 C.ar    1  UNL1        0.1616
     15 C           7.2641    0.3623    0.0000 C.ar    1  UNL1       -0.0545
     16 C           5.5320    0.3623    0.0000 C.ar    1  UNL1       -0.0545
     17 C           3.7320   -2.6585    0.0000 C.ar    1  UNL1       -0.0160
     18 C           7.2641    1.3623    0.0000 C.ar    1  UNL1       -0.0199
     19 C           5.5320    1.3623    0.0000 C.ar    1  UNL1       -0.0199
     20 C           6.3981    1.8623    0.0000 C.ar    1  UNL1        0.1169
     21 C           2.0000   -1.6102    0.0000 C.3     1  UNL1        0.0790
     22 H           6.9350   -0.8277    0.0000 H       1  UNL1        0.0411
     23 H           7.8747   -1.7453    0.0000 H       1  UNL1        0.0436
     24 H           7.4762   -1.0551    0.0000 H       1  UNL1        0.0436
     25 H           5.9995   -3.6126    0.0000 H       1  UNL1        0.0476
     26 H           6.7966   -3.6126    0.0000 H       1  UNL1        0.0476
     27 H           4.6453   -3.7923    0.0000 H       1  UNL1        0.0622
     28 H           7.8201   -3.6746    0.0000 H       1  UNL1        0.0391
     29 H           8.6671   -3.4477    0.0000 H       1  UNL1        0.0391
     30 H           8.4401   -2.6007    0.0000 H       1  UNL1        0.0391
     31 H           7.8010    0.0523    0.0000 H       1  UNL1        0.0622
     32 H           4.9951    0.0523    0.0000 H       1  UNL1        0.0622
     33 H           3.1963   -2.9705    0.0000 H       1  UNL1        0.0655
     34 H           7.8010    1.6723    0.0000 H       1  UNL1        0.0654
     35 H           4.9951    1.6723    0.0000 H       1  UNL1        0.0654
     36 H           4.1164    0.2131    0.0000 H       1  UNL1        0.2923
     37 H           1.6921   -1.0720    0.0000 H       1  UNL1        0.0660
     38 H           1.4619   -1.9181    0.0000 H       1  UNL1        0.0660
     39 H           2.3079   -2.1483    0.0000 H       1  UNL1        0.0660
     40 H           6.9350    3.1723    0.0000 H       1  UNL1        0.2921
@<TRIPOS>BOND
     1     1    11    1
     2     1    36    1
     3     2    14    1
     4     2    21    1
     5     3    20    1
     6     3    40    1
     7     4     6    1
     8     4     8    1
     9     4    13    1
    10     5     6    1
    11     5     7    1
    12     5    10    1
    13     5    22    1
    14     6    23    1
    15     6    24    1
    16     7     9   ar
    17     7    11   ar
    18     8     9    1
    19     8    25    1
    20     8    26    1
    21     9    12   ar
    22    10    15   ar
    23    10    16   ar
    24    11    14   ar
    25    12    17   ar
    26    12    27    1
    27    13    28    1
    28    13    29    1
    29    13    30    1
    30    14    17   ar
    31    15    18   ar
    32    15    31    1
    33    16    19   ar
    34    16    32    1
    35    17    33    1
    36    18    20   ar
    37    18    34    1
    38    19    20   ar
    39    19    35    1
    40    21    37    1
    41    21    38    1
    42    21    39    1
