@<TRIPOS>MOLECULE
IMPHY011459
 65 68 0 0 0
SMALL
GASTEIGER

@<TRIPOS>ATOM
      1 O           8.7016   -1.1605    0.0000 O.2     1  UNL1       -0.4704
      2 O           6.3423   -2.7381    0.0000 O.3     1  UNL1       -0.3724
      3 O           4.7109   -0.6397    0.0000 O.3     1  UNL1       -0.4620
      4 O           7.7840   -2.6743    0.0000 O.3     1  UNL1       -0.3575
      5 O           8.6442    1.9049    0.0000 O.3     1  UNL1       -0.4610
      6 O           4.5213    1.0431    0.0000 O.2     1  UNL1       -0.2508
      7 O           6.9122    1.8849    0.0000 O.2     1  UNL1       -0.2452
      8 O           2.4545   -5.1640    0.0000 O.3     1  UNL1       -0.5033
      9 O           2.8995   -7.1139    0.0000 O.3     1  UNL1       -0.5033
     10 O          11.1900    6.4347    0.0000 O.3     1  UNL1       -0.5033
     11 O           9.4465    7.4146    0.0000 O.3     1  UNL1       -0.5033
     12 C           6.9016   -1.1397    0.0000 C.3     1  UNL1        0.0583
     13 C           6.9016   -0.1397    0.0000 C.3     1  UNL1        0.0148
     14 C           6.1198   -1.7632    0.0000 C.3     1  UNL1        0.1017
     15 C           7.7955   -1.6743    0.0000 C.3     1  UNL1        0.2043
     16 C           6.1198    0.4838    0.0000 C.3     1  UNL1        0.0526
     17 C           7.7955    0.3950    0.0000 C.2     1  UNL1        0.0749
     18 C           5.1448   -1.5406    0.0000 C.3     1  UNL1        0.1190
     19 C           5.1448    0.2613    0.0000 C.2     1  UNL1        0.3078
     20 C           8.7016   -0.1188    0.0000 C.2     1  UNL1        0.0981
     21 C           7.7840    1.3949    0.0000 C.2     1  UNL1        0.3384
     22 C           5.6092   -3.4182    0.0000 C.3     1  UNL1        0.0522
     23 C           5.8317   -4.3932    0.0000 C.3     1  UNL1       -0.0040
     24 C           5.0987   -5.0733    0.0000 C.ar    1  UNL1       -0.0415
     25 C           8.6326    2.9048    0.0000 C.3     1  UNL1        0.0967
     26 C           9.4928    3.4148    0.0000 C.3     1  UNL1        0.0069
     27 C           4.1431   -4.7786    0.0000 C.ar    1  UNL1       -0.0133
     28 C           5.3212   -6.0483    0.0000 C.ar    1  UNL1       -0.0548
     29 C           9.4812    4.4148    0.0000 C.ar    1  UNL1       -0.0405
     30 C           3.4101   -5.4588    0.0000 C.ar    1  UNL1        0.1585
     31 C           4.5882   -6.7285    0.0000 C.ar    1  UNL1       -0.0163
     32 C           3.6326   -6.4337    0.0000 C.ar    1  UNL1        0.1582
     33 C          10.3414    4.9247    0.0000 C.ar    1  UNL1       -0.0132
     34 C           8.6095    4.9047    0.0000 C.ar    1  UNL1       -0.0548
     35 C          10.3298    5.9247    0.0000 C.ar    1  UNL1        0.1585
     36 C           8.5979    5.9046    0.0000 C.ar    1  UNL1       -0.0163
     37 C           9.4581    6.4146    0.0000 C.ar    1  UNL1        0.1582
     38 H           6.9586   -1.9878    0.0000 H       1  UNL1        0.0394
     39 H           6.9586    0.7084    0.0000 H       1  UNL1        0.0363
     40 H           5.6813   -2.2016    0.0000 H       1  UNL1        0.0635
     41 H           8.3294   -1.9895    0.0000 H       1  UNL1        0.1057
     42 H           6.6045    0.8704    0.0000 H       1  UNL1        0.0384
     43 H           5.8507    1.0424    0.0000 H       1  UNL1        0.0384
     44 H           4.5404   -1.6786    0.0000 H       1  UNL1        0.0724
     45 H           5.1448   -2.1606    0.0000 H       1  UNL1        0.0724
     46 H           9.2373    0.1932    0.0000 H       1  UNL1        0.1029
     47 H           5.2728   -2.8974    0.0000 H       1  UNL1        0.0563
     48 H           5.0379   -3.6591    0.0000 H       1  UNL1        0.0563
     49 H           8.3173   -2.9904    0.0000 H       1  UNL1        0.2135
     50 H           6.1681   -4.9140    0.0000 H       1  UNL1        0.0335
     51 H           6.4031   -4.1524    0.0000 H       1  UNL1        0.0335
     52 H           8.4138    3.4850    0.0000 H       1  UNL1        0.0701
     53 H           8.0233    2.7901    0.0000 H       1  UNL1        0.0701
     54 H           9.7115    2.8347    0.0000 H       1  UNL1        0.0346
     55 H          10.1021    3.5295    0.0000 H       1  UNL1        0.0346
     56 H           4.0052   -4.1741    0.0000 H       1  UNL1        0.0658
     57 H           5.9137   -6.2310    0.0000 H       1  UNL1        0.0621
     58 H           4.7261   -7.3329    0.0000 H       1  UNL1        0.0655
     59 H          10.8819    4.6210    0.0000 H       1  UNL1        0.0658
     60 H           8.0761    4.5885    0.0000 H       1  UNL1        0.0621
     61 H           8.0574    6.2084    0.0000 H       1  UNL1        0.0655
     62 H           2.0000   -5.5857    0.0000 H       1  UNL1        0.2923
     63 H           3.0375   -7.7183    0.0000 H       1  UNL1        0.2923
     64 H          11.7305    6.1309    0.0000 H       1  UNL1        0.2923
     65 H           8.9060    7.7183    0.0000 H       1  UNL1        0.2923
@<TRIPOS>BOND
     1     1    15    1
     2     1    20    1
     3    14     2    1
     4     2    22    1
     5     3    18    1
     6     3    19    1
     7    15     4    1
     8     4    49    1
     9     5    21    1
    10     5    25    1
    11     6    19    2
    12     7    21    2
    13     8    30    1
    14     8    62    1
    15     9    32    1
    16     9    63    1
    17    10    35    1
    18    10    64    1
    19    11    37    1
    20    11    65    1
    21    12    13    1
    22    12    14    1
    23    12    15    1
    24    12    38    1
    25    13    16    1
    26    13    17    1
    27    13    39    1
    28    14    18    1
    29    14    40    1
    30    15    41    1
    31    16    19    1
    32    16    42    1
    33    16    43    1
    34    17    20    2
    35    17    21    1
    36    18    44    1
    37    18    45    1
    38    20    46    1
    39    22    23    1
    40    22    47    1
    41    22    48    1
    42    23    24    1
    43    23    50    1
    44    23    51    1
    45    24    27   ar
    46    24    28   ar
    47    25    26    1
    48    25    52    1
    49    25    53    1
    50    26    29    1
    51    26    54    1
    52    26    55    1
    53    27    30   ar
    54    27    56    1
    55    28    31   ar
    56    28    57    1
    57    29    33   ar
    58    29    34   ar
    59    30    32   ar
    60    31    32   ar
    61    31    58    1
    62    33    35   ar
    63    33    59    1
    64    34    36   ar
    65    34    60    1
    66    35    37   ar
    67    36    37   ar
    68    36    61    1
