@<TRIPOS>MOLECULE
IMPHY012371
 130 138 0 0 0
SMALL
GASTEIGER

@<TRIPOS>ATOM
      1 O          14.7317   -0.8198    0.0000 O.3     1  UNL1       -0.3615
      2 O          15.4130   -1.0530    0.0000 O.3     1  UNL1       -0.3851
      3 O           9.4651    0.1841    0.0000 O.3     1  UNL1       -0.3445
      4 O          16.1235   -5.7387    0.0000 O.3     1  UNL1       -0.4571
      5 O           7.7331    0.1841    0.0000 O.3     1  UNL1       -0.3421
      6 O          17.8871   -5.9941    0.0000 O.2     1  UNL1       -0.2456
      7 O           9.4651   -1.8159    0.0000 O.3     1  UNL1       -0.4537
      8 O           7.7331   -2.8159    0.0000 O.3     1  UNL1       -0.3733
      9 O           6.0010   -1.8159    0.0000 O.3     1  UNL1       -0.3402
     10 O           8.5991   -3.3159    0.0000 O.2     1  UNL1       -0.2512
     11 O           5.1350   -0.3159    0.0000 O.3     1  UNL1       -0.3405
     12 O           4.2690   -2.8159    0.0000 O.3     1  UNL1       -0.3841
     13 O           2.5369   -1.8159    0.0000 O.3     1  UNL1       -0.3864
     14 O           2.5369    0.1841    0.0000 O.3     1  UNL1       -0.3865
     15 O           5.1350    1.6841    0.0000 O.3     1  UNL1       -0.3460
     16 O           6.0010    3.1841    0.0000 O.3     1  UNL1       -0.3405
     17 O           3.4030    2.6841    0.0000 O.3     1  UNL1       -0.3841
     18 O           3.4030    4.6841    0.0000 O.3     1  UNL1       -0.3864
     19 O           5.1350    5.6841    0.0000 O.3     1  UNL1       -0.3865
     20 O           7.7331    4.1841    0.0000 O.3     1  UNL1       -0.3924
     21 C          13.8671   -1.3231    0.0000 C.3     1  UNL1        0.1282
     22 C          13.0030   -1.8264    0.0000 C.3     1  UNL1       -0.0010
     23 C          14.7791   -1.8264    0.0000 C.3     1  UNL1        0.1035
     24 C          13.8633   -0.3231    0.0000 C.3     1  UNL1        0.0918
     25 C          14.7911   -2.8680    0.0000 C.3     1  UNL1        0.0062
     26 C          12.1351   -1.3298    0.0000 C.3     1  UNL1       -0.0234
     27 C          12.1312   -0.3298    0.0000 C.3     1  UNL1       -0.0305
     28 C          12.9953    0.1736    0.0000 C.3     1  UNL1       -0.0203
     29 C          12.9910   -2.8680    0.0000 C.3     1  UNL1       -0.0463
     30 C          13.8911   -3.3923    0.0000 C.3     1  UNL1       -0.0440
     31 C          15.7610   -1.4976    0.0000 C.3     1  UNL1       -0.0201
     32 C          15.7803   -3.1740    0.0000 C.3     1  UNL1       -0.0080
     33 C          16.3785   -2.3288    0.0000 C.3     1  UNL1       -0.0431
     34 C          11.2432   -1.8679    0.0000 C.3     1  UNL1       -0.0447
     35 C          11.2352    0.2014    0.0000 C.3     1  UNL1       -0.0231
     36 C          14.8027   -3.8679    0.0000 C.3     1  UNL1       -0.0563
     37 C          12.1389   -2.3298    0.0000 C.3     1  UNL1       -0.0590
     38 C          10.3352   -1.3575    0.0000 C.3     1  UNL1       -0.0260
     39 C          10.3312   -0.3159    0.0000 C.3     1  UNL1        0.0621
     40 C          16.1020   -4.1209    0.0000 C.2     1  UNL1       -0.0222
     41 C          15.5250   -4.9376    0.0000 C.3     1  UNL1        0.1147
     42 C          17.0571   -4.4172    0.0000 C.2     1  UNL1        0.0252
     43 C           8.5991   -0.3159    0.0000 C.3     1  UNL1        0.1994
     44 C          17.0703   -5.4171    0.0000 C.2     1  UNL1        0.3323
     45 C           8.5991   -1.3159    0.0000 C.3     1  UNL1        0.1819
     46 C           7.7331   -1.8159    0.0000 C.3     1  UNL1        0.1285
     47 C           6.8671   -0.3159    0.0000 C.3     1  UNL1        0.0878
     48 C           6.8671   -1.3159    0.0000 C.3     1  UNL1        0.1173
     49 C           6.0010    0.1841    0.0000 C.3     1  UNL1       -0.0360
     50 C           9.4651   -2.8159    0.0000 C.2     1  UNL1        0.3044
     51 C           5.1350   -1.3159    0.0000 C.3     1  UNL1        0.1884
     52 C           6.8671   -3.3159    0.0000 C.3     1  UNL1        0.0371
     53 C          10.3312   -3.3159    0.0000 C.3     1  UNL1        0.0332
     54 C           4.2690   -1.8159    0.0000 C.3     1  UNL1        0.1341
     55 C           3.4030   -1.3159    0.0000 C.3     1  UNL1        0.1141
     56 C           4.2690    0.1841    0.0000 C.3     1  UNL1        0.1134
     57 C           3.4030   -0.3159    0.0000 C.3     1  UNL1        0.1119
     58 C           4.2690    1.1841    0.0000 C.3     1  UNL1        0.0796
     59 C           5.1350    2.6841    0.0000 C.3     1  UNL1        0.1880
     60 C           4.2690    3.1841    0.0000 C.3     1  UNL1        0.1341
     61 C           4.2690    4.1841    0.0000 C.3     1  UNL1        0.1141
     62 C           6.0010    4.1841    0.0000 C.3     1  UNL1        0.1130
     63 C           5.1350    4.6841    0.0000 C.3     1  UNL1        0.1119
     64 C           6.8671    4.6841    0.0000 C.3     1  UNL1        0.0730
     65 H          13.5388   -2.1385    0.0000 H       1  UNL1        0.0336
     66 H          14.1711    0.2151    0.0000 H       1  UNL1        0.0626
     67 H          12.1336    0.2902    0.0000 H       1  UNL1        0.0308
     68 H          13.3920    0.6500    0.0000 H       1  UNL1        0.0294
     69 H          12.5950    0.6470    0.0000 H       1  UNL1        0.0294
     70 H          12.3814   -2.7548    0.0000 H       1  UNL1        0.0269
     71 H          12.7752   -3.4492    0.0000 H       1  UNL1        0.0269
     72 H          13.4919   -3.8667    0.0000 H       1  UNL1        0.0272
     73 H          14.2902   -3.8667    0.0000 H       1  UNL1        0.0272
     74 H          16.2947   -1.1822    0.0000 H       1  UNL1        0.0294
     75 H          15.5034   -0.9337    0.0000 H       1  UNL1        0.0294
     76 H          16.3939   -3.2631    0.0000 H       1  UNL1        0.0353
     77 H          16.8441   -2.7382    0.0000 H       1  UNL1        0.0272
     78 H          16.8346   -1.9088    0.0000 H       1  UNL1        0.0272
     79 H          10.8514   -2.3484    0.0000 H       1  UNL1        0.0271
     80 H          11.6496   -2.3361    0.0000 H       1  UNL1        0.0271
     81 H          11.6380    0.6728    0.0000 H       1  UNL1        0.0293
     82 H          10.8398    0.6789    0.0000 H       1  UNL1        0.0293
     83 H          14.1827   -3.8751    0.0000 H       1  UNL1        0.0236
     84 H          14.8099   -4.4879    0.0000 H       1  UNL1        0.0236
     85 H          15.4226   -3.8608    0.0000 H       1  UNL1        0.0236
     86 H          11.5190   -2.3322    0.0000 H       1  UNL1        0.0235
     87 H          12.1413   -2.9498    0.0000 H       1  UNL1        0.0235
     88 H          12.7589   -2.3274    0.0000 H       1  UNL1        0.0235
     89 H          15.5136   -0.4412    0.0000 H       1  UNL1        0.2103
     90 H           9.7239   -1.2538    0.0000 H       1  UNL1        0.0290
     91 H          10.1284   -1.9420    0.0000 H       1  UNL1        0.0290
     92 H           9.7948   -0.6269    0.0000 H       1  UNL1        0.0597
     93 H          15.0588   -4.5289    0.0000 H       1  UNL1        0.0746
     94 H          15.0698   -5.3586    0.0000 H       1  UNL1        0.0746
     95 H          17.5538   -4.0461    0.0000 H       1  UNL1        0.0689
     96 H           8.5991    0.3041    0.0000 H       1  UNL1        0.0949
     97 H           8.5991   -1.9359    0.0000 H       1  UNL1        0.0813
     98 H           7.1962   -2.1259    0.0000 H       1  UNL1        0.0662
     99 H           6.8671    0.3041    0.0000 H       1  UNL1        0.0621
    100 H           6.3301   -1.0059    0.0000 H       1  UNL1        0.0650
    101 H           6.3110    0.7210    0.0000 H       1  UNL1        0.0255
    102 H           5.4641    0.4941    0.0000 H       1  UNL1        0.0255
    103 H           5.6910   -0.3528    0.0000 H       1  UNL1        0.0255
    104 H           5.1350   -1.9359    0.0000 H       1  UNL1        0.0938
    105 H           6.5571   -2.7790    0.0000 H       1  UNL1        0.0524
    106 H           6.3301   -3.6259    0.0000 H       1  UNL1        0.0524
    107 H           7.1771   -3.8528    0.0000 H       1  UNL1        0.0524
    108 H          10.0212   -3.8528    0.0000 H       1  UNL1        0.0342
    109 H          10.8681   -3.6259    0.0000 H       1  UNL1        0.0342
    110 H          10.6412   -2.7790    0.0000 H       1  UNL1        0.0342
    111 H           3.7320   -2.1259    0.0000 H       1  UNL1        0.0671
    112 H           2.8660   -1.0059    0.0000 H       1  UNL1        0.0648
    113 H           4.8059    0.4941    0.0000 H       1  UNL1        0.0647
    114 H           3.4030    0.3041    0.0000 H       1  UNL1        0.0647
    115 H           3.7320   -3.1259    0.0000 H       1  UNL1        0.2101
    116 H           4.0569    1.7667    0.0000 H       1  UNL1        0.0587
    117 H           3.6584    1.0764    0.0000 H       1  UNL1        0.0587
    118 H           2.0000   -1.5059    0.0000 H       1  UNL1        0.2100
    119 H           2.5369    0.8041    0.0000 H       1  UNL1        0.2100
    120 H           4.5981    2.3741    0.0000 H       1  UNL1        0.0937
    121 H           3.7320    3.4941    0.0000 H       1  UNL1        0.0671
    122 H           4.8059    3.8741    0.0000 H       1  UNL1        0.0648
    123 H           6.5380    3.8741    0.0000 H       1  UNL1        0.0647
    124 H           4.5981    4.9941    0.0000 H       1  UNL1        0.0647
    125 H           2.8660    2.9941    0.0000 H       1  UNL1        0.2101
    126 H           7.2656    5.1590    0.0000 H       1  UNL1        0.0584
    127 H           6.4685    5.1590    0.0000 H       1  UNL1        0.0584
    128 H           3.4030    5.3041    0.0000 H       1  UNL1        0.2100
    129 H           5.6720    5.9941    0.0000 H       1  UNL1        0.2100
    130 H           8.2700    4.4941    0.0000 H       1  UNL1        0.2095
@<TRIPOS>BOND
     1     1    21    1
     2     1    24    1
     3     2    23    1
     4     2    89    1
     5     3    39    1
     6     3    43    1
     7     4    41    1
     8     4    44    1
     9     5    43    1
    10     5    47    1
    11     6    44    2
    12     7    45    1
    13     7    50    1
    14     8    46    1
    15     8    52    1
    16     9    48    1
    17     9    51    1
    18    10    50    2
    19    11    51    1
    20    11    56    1
    21    12    54    1
    22    12   115    1
    23    13    55    1
    24    13   118    1
    25    14    57    1
    26    14   119    1
    27    15    58    1
    28    15    59    1
    29    16    59    1
    30    16    62    1
    31    17    60    1
    32    17   125    1
    33    18    61    1
    34    18   128    1
    35    19    63    1
    36    19   129    1
    37    20    64    1
    38    20   130    1
    39    21    22    1
    40    21    23    1
    41    21    24    1
    42    22    26    1
    43    22    29    1
    44    22    65    1
    45    23    25    1
    46    23    31    1
    47    24    28    1
    48    24    66    1
    49    25    30    1
    50    25    32    1
    51    25    36    1
    52    26    27    1
    53    26    34    1
    54    26    37    1
    55    27    28    1
    56    27    35    1
    57    27    67    1
    58    28    68    1
    59    28    69    1
    60    29    30    1
    61    29    70    1
    62    29    71    1
    63    30    72    1
    64    30    73    1
    65    31    33    1
    66    31    74    1
    67    31    75    1
    68    32    33    1
    69    32    40    1
    70    32    76    1
    71    33    77    1
    72    33    78    1
    73    34    38    1
    74    34    79    1
    75    34    80    1
    76    35    39    1
    77    35    81    1
    78    35    82    1
    79    36    83    1
    80    36    84    1
    81    36    85    1
    82    37    86    1
    83    37    87    1
    84    37    88    1
    85    38    39    1
    86    38    90    1
    87    38    91    1
    88    39    92    1
    89    40    41    1
    90    40    42    2
    91    41    93    1
    92    41    94    1
    93    42    44    1
    94    42    95    1
    95    43    45    1
    96    43    96    1
    97    45    46    1
    98    45    97    1
    99    46    48    1
   100    46    98    1
   101    47    48    1
   102    47    49    1
   103    47    99    1
   104    48   100    1
   105    49   101    1
   106    49   102    1
   107    49   103    1
   108    50    53    1
   109    51    54    1
   110    51   104    1
   111    52   105    1
   112    52   106    1
   113    52   107    1
   114    53   108    1
   115    53   109    1
   116    53   110    1
   117    54    55    1
   118    54   111    1
   119    55    57    1
   120    55   112    1
   121    56    57    1
   122    56    58    1
   123    56   113    1
   124    57   114    1
   125    58   116    1
   126    58   117    1
   127    59    60    1
   128    59   120    1
   129    60    61    1
   130    60   121    1
   131    61    63    1
   132    61   122    1
   133    62    63    1
   134    62    64    1
   135    62   123    1
   136    63   124    1
   137    64   126    1
   138    64   127    1
