@<TRIPOS>MOLECULE
IMPHY004730
 55 58 0 0 0
SMALL
GASTEIGER

@<TRIPOS>ATOM
      1 O           6.8903   -2.0506    0.0000 O.3     1  UNL1       -0.4808
      2 O           6.0682   -0.5437    0.0000 O.2     1  UNL1       -0.4539
      3 O          10.3984   -2.0437    0.0000 O.3     1  UNL1       -0.5061
      4 O           6.0682    2.4563    0.0000 O.2     1  UNL1       -0.2866
      5 O           4.3198    2.4909    0.0000 O.3     1  UNL1       -0.5058
      6 O           2.5381   -0.5679    0.0000 O.3     1  UNL1       -0.5065
      7 C           6.8823   -3.0922    0.0000 C.3     1  UNL1        0.1235
      8 C           7.8003   -1.5437    0.0000 C.ar    1  UNL1        0.1430
      9 C           7.8003   -0.5437    0.0000 C.ar    1  UNL1        0.0601
     10 C           8.6663   -2.0437    0.0000 C.ar    1  UNL1        0.0586
     11 C           7.7844   -3.6130    0.0000 C.2     1  UNL1       -0.0408
     12 C           6.9343   -0.0437    0.0000 C.ar    1  UNL1        0.1462
     13 C           6.9343    0.9563    0.0000 C.ar    1  UNL1        0.0467
     14 C           6.3789   -3.9563    0.0000 C.3     1  UNL1       -0.0215
     15 C           5.8823   -3.0883    0.0000 C.3     1  UNL1       -0.0215
     16 C           8.6824   -3.0852    0.0000 C.2     1  UNL1       -0.0478
     17 C           9.5323   -1.5437    0.0000 C.ar    1  UNL1        0.1275
     18 C           8.6663   -0.0437    0.0000 C.ar    1  UNL1       -0.0441
     19 C           7.8003    1.4563    0.0000 C.3     1  UNL1       -0.0021
     20 C           6.0682    1.4563    0.0000 C.ar    1  UNL1        0.2001
     21 C           5.2022    0.9563    0.0000 C.ar    1  UNL1        0.1058
     22 C           5.2022   -0.0437    0.0000 C.ar    1  UNL1        0.1463
     23 C           9.5323   -0.5437    0.0000 C.ar    1  UNL1       -0.0187
     24 C           4.3083    1.4909    0.0000 C.ar    1  UNL1        0.1347
     25 C           7.8003    2.4563    0.0000 C.2     1  UNL1       -0.0807
     26 C           4.3083   -0.5784    0.0000 C.ar    1  UNL1        0.0231
     27 C           3.4022    0.9771    0.0000 C.ar    1  UNL1        0.0223
     28 C           3.4022   -0.0645    0.0000 C.ar    1  UNL1        0.1239
     29 C           8.6663    2.9563    0.0000 C.2     1  UNL1       -0.0793
     30 C           8.6663    3.9563    0.0000 C.3     1  UNL1       -0.0440
     31 C           9.5323    2.4563    0.0000 C.3     1  UNL1       -0.0440
     32 H           7.7867   -4.2330    0.0000 H       1  UNL1        0.0611
     33 H           5.8432   -3.6442    0.0000 H       1  UNL1        0.0271
     34 H           6.0669   -4.4920    0.0000 H       1  UNL1        0.0271
     35 H           6.9147   -4.2683    0.0000 H       1  UNL1        0.0271
     36 H           5.8847   -2.4683    0.0000 H       1  UNL1        0.0271
     37 H           5.2623   -3.0859    0.0000 H       1  UNL1        0.0271
     38 H           5.8799   -3.7083    0.0000 H       1  UNL1        0.0271
     39 H           9.2229   -3.3890    0.0000 H       1  UNL1        0.0624
     40 H           8.6663    0.5763    0.0000 H       1  UNL1        0.0627
     41 H           8.0124    0.8737    0.0000 H       1  UNL1        0.0358
     42 H           8.4109    1.5639    0.0000 H       1  UNL1        0.0358
     43 H          10.0693   -0.2337    0.0000 H       1  UNL1        0.0654
     44 H           7.2634    2.7663    0.0000 H       1  UNL1        0.0575
     45 H           4.3154   -1.1984    0.0000 H       1  UNL1        0.0691
     46 H           2.8665    1.2892    0.0000 H       1  UNL1        0.0691
     47 H          10.9353   -1.7337    0.0000 H       1  UNL1        0.2922
     48 H           9.2863    3.9563    0.0000 H       1  UNL1        0.0274
     49 H           9.2224    1.9193    0.0000 H       1  UNL1        0.0274
     50 H          10.0693    2.1463    0.0000 H       1  UNL1        0.0274
     51 H           9.8424    2.9932    0.0000 H       1  UNL1        0.0274
     52 H           8.6663    4.5763    0.0000 H       1  UNL1        0.0274
     53 H           8.0463    3.9563    0.0000 H       1  UNL1        0.0274
     54 H           3.7865    2.8070    0.0000 H       1  UNL1        0.2922
     55 H           2.0000   -0.2600    0.0000 H       1  UNL1        0.2921
@<TRIPOS>BOND
     1     1     7    1
     2     1     8    1
     3     2    12   ar
     4     2    22   ar
     5     3    17    1
     6     3    47    1
     7     4    20    2
     8     5    24    1
     9     5    54    1
    10     6    28    1
    11     6    55    1
    12     7    11    1
    13     7    14    1
    14     7    15    1
    15     8     9   ar
    16     8    10   ar
    17     9    12    1
    18     9    18   ar
    19    10    16    1
    20    10    17   ar
    21    11    16    2
    22    11    32    1
    23    12    13   ar
    24    13    19    1
    25    13    20   ar
    26    14    33    1
    27    14    34    1
    28    14    35    1
    29    15    36    1
    30    15    37    1
    31    15    38    1
    32    16    39    1
    33    17    23   ar
    34    18    23   ar
    35    18    40    1
    36    19    25    1
    37    19    41    1
    38    19    42    1
    39    20    21   ar
    40    21    22   ar
    41    21    24   ar
    42    22    26   ar
    43    23    43    1
    44    24    27   ar
    45    25    29    2
    46    25    44    1
    47    26    28   ar
    48    26    45    1
    49    27    28   ar
    50    27    46    1
    51    29    30    1
    52    29    31    1
    53    30    48    1
    54    30    52    1
    55    30    53    1
    56    31    49    1
    57    31    50    1
    58    31    51    1
