@<TRIPOS>MOLECULE
IMPHY000809
 44 44 0 0 0
SMALL
GASTEIGER

@<TRIPOS>ATOM
      1 O           4.2690   -2.9050    0.0000 O.3     1  UNL1       -0.3888
      2 O           2.5369    1.0950    0.0000 O.3     1  UNL1       -0.3875
      3 O           6.8671    2.5950    0.0000 O.3     1  UNL1       -0.3875
      4 C           4.2690   -0.9050    0.0000 C.3     1  UNL1       -0.0097
      5 C           4.2690   -1.9050    0.0000 C.3     1  UNL1        0.0634
      6 C           3.4030   -0.4050    0.0000 C.3     1  UNL1       -0.0176
      7 C           5.1350   -0.4050    0.0000 C.3     1  UNL1       -0.0438
      8 C           3.4030    0.5950    0.0000 C.3     1  UNL1        0.0764
      9 C           5.1350    0.5950    0.0000 C.3     1  UNL1       -0.0292
     10 C           3.2690   -1.9050    0.0000 C.3     1  UNL1       -0.0361
     11 C           5.2690   -1.9050    0.0000 C.3     1  UNL1       -0.0361
     12 C           4.2690    1.0950    0.0000 C.2     1  UNL1       -0.0484
     13 C           6.0010    1.0950    0.0000 C.2     1  UNL1       -0.0485
     14 C           6.0010    2.0950    0.0000 C.3     1  UNL1        0.0763
     15 C           4.2690    2.0950    0.0000 C.3     1  UNL1       -0.0269
     16 C           5.1350    2.5950    0.0000 C.3     1  UNL1       -0.0192
     17 C           5.1350    1.5950    0.0000 C.2     1  UNL1       -0.0970
     18 C           6.8671    0.5950    0.0000 C.2     1  UNL1       -0.0970
     19 H           5.0051   -1.3300    0.0000 H       1  UNL1        0.0329
     20 H           2.7924   -0.2973    0.0000 H       1  UNL1        0.0297
     21 H           3.1909   -0.9876    0.0000 H       1  UNL1        0.0297
     22 H           5.3471   -0.9876    0.0000 H       1  UNL1        0.0272
     23 H           5.7456   -0.2973    0.0000 H       1  UNL1        0.0272
     24 H           3.4030    1.2150    0.0000 H       1  UNL1        0.0640
     25 H           4.9230    1.1776    0.0000 H       1  UNL1        0.0311
     26 H           4.5244    0.4873    0.0000 H       1  UNL1        0.0311
     27 H           3.2690   -1.2850    0.0000 H       1  UNL1        0.0257
     28 H           2.6490   -1.9050    0.0000 H       1  UNL1        0.0257
     29 H           3.2690   -2.5250    0.0000 H       1  UNL1        0.0257
     30 H           5.2690   -2.5250    0.0000 H       1  UNL1        0.0257
     31 H           5.8890   -1.9050    0.0000 H       1  UNL1        0.0257
     32 H           5.2690   -1.2850    0.0000 H       1  UNL1        0.0257
     33 H           6.5380    1.7850    0.0000 H       1  UNL1        0.0640
     34 H           4.0569    2.6776    0.0000 H       1  UNL1        0.0312
     35 H           3.6584    1.9873    0.0000 H       1  UNL1        0.0312
     36 H           5.5335    3.0700    0.0000 H       1  UNL1        0.0296
     37 H           4.7365    3.0700    0.0000 H       1  UNL1        0.0296
     38 H           3.7320   -3.2150    0.0000 H       1  UNL1        0.2101
     39 H           2.0000    0.7850    0.0000 H       1  UNL1        0.2102
     40 H           5.6720    1.2850    0.0000 H       1  UNL1        0.0535
     41 H           5.1350    2.2150    0.0000 H       1  UNL1        0.0535
     42 H           6.8671   -0.0250    0.0000 H       1  UNL1        0.0535
     43 H           7.4040    0.9050    0.0000 H       1  UNL1        0.0535
     44 H           6.8671    3.2150    0.0000 H       1  UNL1        0.2102
@<TRIPOS>BOND
     1     1     5    1
     2     1    38    1
     3     8     2    1
     4     2    39    1
     5    14     3    1
     6     3    44    1
     7     4     5    1
     8     4     6    1
     9     4     7    1
    10     4    19    1
    11     5    10    1
    12     5    11    1
    13     6     8    1
    14     6    20    1
    15     6    21    1
    16     7     9    1
    17     7    22    1
    18     7    23    1
    19     8    12    1
    20     8    24    1
    21     9    13    1
    22     9    25    1
    23     9    26    1
    24    10    27    1
    25    10    28    1
    26    10    29    1
    27    11    30    1
    28    11    31    1
    29    11    32    1
    30    12    15    1
    31    12    17    2
    32    13    14    1
    33    13    18    2
    34    14    16    1
    35    14    33    1
    36    15    16    1
    37    15    34    1
    38    15    35    1
    39    16    36    1
    40    16    37    1
    41    17    40    1
    42    17    41    1
    43    18    42    1
    44    18    43    1
