@<TRIPOS>MOLECULE
IMPHY003098
 39 43 0 0 0
SMALL
GASTEIGER

@<TRIPOS>ATOM
      1 O           2.6249    2.6714    0.0000 O.3     1  UNL1       -0.4526
      2 O           4.0768    3.5096    0.0000 O.3     1  UNL1       -0.4526
      3 O           2.5405   -0.5688    0.0000 O.3     1  UNL1       -0.5029
      4 O           6.9088    0.9281    0.0000 O.2     1  UNL1       -0.2802
      5 O           2.5247   -2.6170    0.0000 O.3     1  UNL1       -0.4914
      6 N           6.9022   -1.0667    0.0000 N.ar    1  UNL1       -0.1967
      7 C           5.1767   -1.0719    0.0000 C.ar    1  UNL1        0.0689
      8 C           4.3107   -0.5719    0.0000 C.ar    1  UNL1        0.0421
      9 C           6.0427   -0.5719    0.0000 C.ar    1  UNL1        0.2635
     10 C           4.3107    0.4281    0.0000 C.ar    1  UNL1        0.0012
     11 C           5.1767    0.9281    0.0000 C.ar    1  UNL1        0.0398
     12 C           5.1928   -2.1134    0.0000 C.ar    1  UNL1       -0.0016
     13 C           6.0427    0.4281    0.0000 C.2     1  UNL1        0.2578
     14 C           3.4007   -1.0787    0.0000 C.ar    1  UNL1        0.1671
     15 C           3.4007    0.9350    0.0000 C.ar    1  UNL1       -0.0076
     16 C           5.1928    1.9696    0.0000 C.ar    1  UNL1       -0.0045
     17 C           4.2947   -2.6412    0.0000 C.ar    1  UNL1       -0.0082
     18 C           6.0699   -2.5762    0.0000 C.ar    1  UNL1        0.0100
     19 C           3.3926    1.9766    0.0000 C.ar    1  UNL1        0.1668
     20 C           4.2947    2.4974    0.0000 C.ar    1  UNL1        0.1669
     21 C           3.3926   -2.1203    0.0000 C.ar    1  UNL1        0.1625
     22 C           6.9156   -2.0583    0.0000 C.ar    1  UNL1        0.1722
     23 C           7.7645   -0.5603    0.0000 C.3     1  UNL1        0.1411
     24 C           3.0469    3.6170    0.0000 C.3     1  UNL1        0.2332
     25 C           2.5208   -3.6170    0.0000 C.3     1  UNL1        0.0790
     26 H           2.8674    0.6188    0.0000 H       1  UNL1        0.0662
     27 H           5.7332    2.2734    0.0000 H       1  UNL1        0.0663
     28 H           4.2971   -3.2612    0.0000 H       1  UNL1        0.0661
     29 H           6.0897   -3.1958    0.0000 H       1  UNL1        0.0683
     30 H           7.4586   -2.3576    0.0000 H       1  UNL1        0.1376
     31 H           8.0784   -1.0949    0.0000 H       1  UNL1        0.0993
     32 H           8.2991   -0.2463    0.0000 H       1  UNL1        0.0993
     33 H           7.4505   -0.0256    0.0000 H       1  UNL1        0.0993
     34 H           3.1756    4.2235    0.0000 H       1  UNL1        0.1166
     35 H           2.4573    3.8088    0.0000 H       1  UNL1        0.1166
     36 H           2.0000   -0.8725    0.0000 H       1  UNL1        0.2923
     37 H           1.9008   -3.6146    0.0000 H       1  UNL1        0.0660
     38 H           2.5184   -4.2370    0.0000 H       1  UNL1        0.0660
     39 H           3.1408   -3.6194    0.0000 H       1  UNL1        0.0660
@<TRIPOS>UNITY_ATOM_ATTR
6 1
charge 1
@<TRIPOS>BOND
     1     1    19    1
     2     1    24    1
     3     2    20    1
     4     2    24    1
     5     3    14    1
     6     3    36    1
     7     4    13    2
     8     5    21    1
     9     5    25    1
    10     6     9   ar
    11     6    22   ar
    12     6    23    1
    13     7     8   ar
    14     7     9   ar
    15     7    12   ar
    16     8    10    1
    17     8    14   ar
    18     9    13    1
    19    10    11   ar
    20    10    15   ar
    21    11    13    1
    22    11    16   ar
    23    12    17   ar
    24    12    18   ar
    25    14    21   ar
    26    15    19   ar
    27    15    26    1
    28    16    20   ar
    29    16    27    1
    30    17    21   ar
    31    17    28    1
    32    18    22   ar
    33    18    29    1
    34    19    20   ar
    35    22    30    1
    36    23    31    1
    37    23    32    1
    38    23    33    1
    39    24    34    1
    40    24    35    1
    41    25    37    1
    42    25    38    1
    43    25    39    1
