@<TRIPOS>MOLECULE
IMPHY010026
 42 41 0 0 0
SMALL
GASTEIGER

@<TRIPOS>ATOM
      1 O          14.9904   -0.5600    0.0000 O.2     1  UNL1       -0.2963
      2 C           6.3301   -0.5600    0.0000 C.3     1  UNL1       -0.0531
      3 C           5.4641   -0.0600    0.0000 C.3     1  UNL1       -0.0531
      4 C           7.1962   -0.0600    0.0000 C.3     1  UNL1       -0.0530
      5 C           4.5981   -0.5600    0.0000 C.3     1  UNL1       -0.0531
      6 C           8.0622   -0.5600    0.0000 C.3     1  UNL1       -0.0528
      7 C           3.7320   -0.0600    0.0000 C.3     1  UNL1       -0.0533
      8 C           8.9282   -0.0600    0.0000 C.3     1  UNL1       -0.0496
      9 C           2.8660   -0.5600    0.0000 C.3     1  UNL1       -0.0559
     10 C           9.7942   -0.5600    0.0000 C.3     1  UNL1       -0.0345
     11 C           2.0000   -0.0600    0.0000 C.3     1  UNL1       -0.0653
     12 C          10.6603   -0.0600    0.0000 C.2     1  UNL1       -0.0840
     13 C          11.5263   -0.5600    0.0000 C.2     1  UNL1       -0.0656
     14 C          12.3923   -0.0600    0.0000 C.2     1  UNL1       -0.0590
     15 C          13.2583   -0.5600    0.0000 C.2     1  UNL1       -0.0225
     16 C          14.1244   -0.0600    0.0000 C.2     1  UNL1        0.1431
     17 H           5.9316   -1.0350    0.0000 H       1  UNL1        0.0265
     18 H           6.7287   -1.0350    0.0000 H       1  UNL1        0.0265
     19 H           5.8626    0.4149    0.0000 H       1  UNL1        0.0265
     20 H           5.0656    0.4149    0.0000 H       1  UNL1        0.0265
     21 H           7.5947    0.4149    0.0000 H       1  UNL1        0.0265
     22 H           6.7976    0.4149    0.0000 H       1  UNL1        0.0265
     23 H           4.1996   -1.0350    0.0000 H       1  UNL1        0.0265
     24 H           4.9966   -1.0350    0.0000 H       1  UNL1        0.0265
     25 H           7.6636   -1.0350    0.0000 H       1  UNL1        0.0265
     26 H           8.4607   -1.0350    0.0000 H       1  UNL1        0.0265
     27 H           4.1306    0.4149    0.0000 H       1  UNL1        0.0265
     28 H           3.3335    0.4149    0.0000 H       1  UNL1        0.0265
     29 H           9.3267    0.4149    0.0000 H       1  UNL1        0.0268
     30 H           8.5297    0.4149    0.0000 H       1  UNL1        0.0268
     31 H           2.4675   -1.0350    0.0000 H       1  UNL1        0.0263
     32 H           3.2646   -1.0350    0.0000 H       1  UNL1        0.0263
     33 H           9.3957   -1.0350    0.0000 H       1  UNL1        0.0307
     34 H          10.1928   -1.0350    0.0000 H       1  UNL1        0.0307
     35 H           2.3100    0.4769    0.0000 H       1  UNL1        0.0230
     36 H           1.4631    0.2500    0.0000 H       1  UNL1        0.0230
     37 H           1.6900   -0.5969    0.0000 H       1  UNL1        0.0230
     38 H          10.6603    0.5600    0.0000 H       1  UNL1        0.0572
     39 H          11.5263   -1.1800    0.0000 H       1  UNL1        0.0614
     40 H          12.3923    0.5600    0.0000 H       1  UNL1        0.0618
     41 H          13.2583   -1.1800    0.0000 H       1  UNL1        0.0649
     42 H          14.1244    0.5600    0.0000 H       1  UNL1        0.1075
@<TRIPOS>BOND
     1     1    16    2
     2     2     3    1
     3     2     4    1
     4     2    17    1
     5     2    18    1
     6     3     5    1
     7     3    19    1
     8     3    20    1
     9     4     6    1
    10     4    21    1
    11     4    22    1
    12     5     7    1
    13     5    23    1
    14     5    24    1
    15     6     8    1
    16     6    25    1
    17     6    26    1
    18     7     9    1
    19     7    27    1
    20     7    28    1
    21     8    10    1
    22     8    29    1
    23     8    30    1
    24     9    11    1
    25     9    31    1
    26     9    32    1
    27    10    12    1
    28    10    33    1
    29    10    34    1
    30    11    35    1
    31    11    36    1
    32    11    37    1
    33    12    13    2
    34    12    38    1
    35    13    14    1
    36    13    39    1
    37    14    15    2
    38    14    40    1
    39    15    16    1
    40    15    41    1
    41    16    42    1
