@<TRIPOS>MOLECULE
IMPHY008648
 43 46 0 0 0
SMALL
GASTEIGER

@<TRIPOS>ATOM
      1 O           8.6793   -0.7097    0.0000 O.2     1  UNL1       -0.4511
      2 O           5.1350    2.0950    0.0000 O.3     1  UNL1       -0.3871
      3 O           6.8671   -1.9050    0.0000 O.3     1  UNL1       -0.4914
      4 O          12.4300    1.6980    0.0000 O.3     1  UNL1       -0.4526
      5 O          13.2347    0.3042    0.0000 O.3     1  UNL1       -0.4526
      6 O           2.5369    0.5950    0.0000 O.3     1  UNL1       -0.3949
      7 C           5.1350    1.0950    0.0000 C.3     1  UNL1        0.0824
      8 C           6.0010    0.5950    0.0000 C.ar    1  UNL1       -0.0148
      9 C           7.7331    0.5950    0.0000 C.ar    1  UNL1        0.0248
     10 C           7.7331   -0.4050    0.0000 C.ar    1  UNL1        0.1771
     11 C           6.8671    1.0950    0.0000 C.ar    1  UNL1       -0.0451
     12 C           4.2690    0.5950    0.0000 C.3     1  UNL1        0.0006
     13 C           9.2629    0.0950    0.0000 C.ar    1  UNL1        0.1365
     14 C           6.0010   -0.4050    0.0000 C.ar    1  UNL1       -0.0106
     15 C           6.8671   -0.9050    0.0000 C.ar    1  UNL1        0.1630
     16 C           8.6793    0.8997    0.0000 C.ar    1  UNL1       -0.0080
     17 C          10.2629    0.0950    0.0000 C.ar    1  UNL1        0.0210
     18 C           3.4030    1.0950    0.0000 C.3     1  UNL1        0.0469
     19 C          10.7629    0.9610    0.0000 C.ar    1  UNL1       -0.0055
     20 C          11.7629    0.9610    0.0000 C.ar    1  UNL1        0.1669
     21 C          10.7629   -0.7710    0.0000 C.ar    1  UNL1       -0.0474
     22 C          12.2629    0.0950    0.0000 C.ar    1  UNL1        0.1663
     23 C          11.7629   -0.7710    0.0000 C.ar    1  UNL1       -0.0155
     24 C          13.3378    1.2929    0.0000 C.3     1  UNL1        0.2332
     25 C           6.0010   -2.4050    0.0000 C.3     1  UNL1        0.0790
     26 H           5.6720    1.4050    0.0000 H       1  UNL1        0.0644
     27 H           6.8671    1.7150    0.0000 H       1  UNL1        0.0628
     28 H           3.8705    0.1201    0.0000 H       1  UNL1        0.0316
     29 H           4.6675    0.1201    0.0000 H       1  UNL1        0.0316
     30 H           5.4641   -0.7150    0.0000 H       1  UNL1        0.0659
     31 H           8.8719    1.4890    0.0000 H       1  UNL1        0.0661
     32 H           3.8015    1.5700    0.0000 H       1  UNL1        0.0558
     33 H           3.0044    1.5700    0.0000 H       1  UNL1        0.0558
     34 H          10.4529    1.4980    0.0000 H       1  UNL1        0.0662
     35 H          10.4529   -1.3080    0.0000 H       1  UNL1        0.0626
     36 H          12.0729   -1.3080    0.0000 H       1  UNL1        0.0655
     37 H           4.5981    2.4050    0.0000 H       1  UNL1        0.2102
     38 H          13.9443    1.1642    0.0000 H       1  UNL1        0.1166
     39 H          13.5295    1.8825    0.0000 H       1  UNL1        0.1166
     40 H           5.6910   -1.8681    0.0000 H       1  UNL1        0.0660
     41 H           5.4641   -2.7150    0.0000 H       1  UNL1        0.0660
     42 H           6.3110   -2.9419    0.0000 H       1  UNL1        0.0660
     43 H           2.0000    0.9050    0.0000 H       1  UNL1        0.2094
@<TRIPOS>BOND
     1     1    10   ar
     2     1    13   ar
     3     2     7    1
     4     2    37    1
     5     3    15    1
     6     3    25    1
     7     4    20    1
     8     4    24    1
     9     5    22    1
    10     5    24    1
    11     6    18    1
    12     6    43    1
    13     7     8    1
    14     7    12    1
    15     7    26    1
    16     8    11   ar
    17     8    14   ar
    18     9    10   ar
    19     9    11   ar
    20     9    16   ar
    21    10    15   ar
    22    11    27    1
    23    12    18    1
    24    12    28    1
    25    12    29    1
    26    13    16   ar
    27    13    17    1
    28    14    15   ar
    29    14    30    1
    30    16    31    1
    31    17    19   ar
    32    17    21   ar
    33    18    32    1
    34    18    33    1
    35    19    20   ar
    36    19    34    1
    37    20    22   ar
    38    21    23   ar
    39    21    35    1
    40    22    23   ar
    41    23    36    1
    42    24    38    1
    43    24    39    1
    44    25    40    1
    45    25    41    1
    46    25    42    1
