@<TRIPOS>MOLECULE
IMPHY009106
 203 213 0 0 0
SMALL
GASTEIGER

@<TRIPOS>ATOM
      1 O           7.7331   -7.0993    0.0000 O.3     1  UNL1       -0.3423
      2 O          10.5272   -0.0208    0.0000 O.3     1  UNL1       -0.3906
      3 O           5.9257   -6.0465    0.0000 O.3     1  UNL1       -0.3892
      4 O          10.1773   -6.4077    0.0000 O.3     1  UNL1       -0.3944
      5 O           9.4869    2.1801    0.0000 O.3     1  UNL1       -0.4318
      6 O          10.4812    1.3652    0.0000 O.2     1  UNL1       -0.2500
      7 O           6.0010   -7.0993    0.0000 O.3     1  UNL1       -0.3405
      8 O           7.7331   -9.0994    0.0000 O.3     1  UNL1       -0.3841
      9 O          11.2188    2.2001    0.0000 O.3     1  UNL1       -0.3338
     10 O           6.0010  -10.0993    0.0000 O.3     1  UNL1       -0.3401
     11 O           9.4638    4.1800    0.0000 O.3     1  UNL1       -0.3366
     12 O           4.2690   -9.0994    0.0000 O.3     1  UNL1       -0.3865
     13 O          11.1841    5.1999    0.0000 O.3     1  UNL1       -0.3863
     14 O           4.2690   -6.0993    0.0000 O.3     1  UNL1       -0.3924
     15 O          12.9276    4.2200    0.0000 O.3     1  UNL1       -0.3866
     16 O           5.1350  -11.5993    0.0000 O.3     1  UNL1       -0.3405
     17 O          10.3124    5.6899    0.0000 O.3     1  UNL1       -0.3431
     18 O           4.2690   -9.0994    0.0000 O.3     1  UNL1       -0.3841
     19 O           7.7203    5.1599    0.0000 O.3     1  UNL1       -0.3841
     20 O           2.5369  -10.0993    0.0000 O.3     1  UNL1       -0.3864
     21 O           2.5369  -12.0993    0.0000 O.3     1  UNL1       -0.3865
     22 O           7.6971    7.1597    0.0000 O.3     1  UNL1       -0.3864
     23 O           9.4175    8.1797    0.0000 O.3     1  UNL1       -0.3402
     24 O           5.1350  -13.5993    0.0000 O.3     1  UNL1       -0.3924
     25 O          11.1494    8.1997    0.0000 O.3     1  UNL1       -0.3461
     26 O           9.3944   10.1796    0.0000 O.3     1  UNL1       -0.3841
     27 O          11.1148   11.1995    0.0000 O.3     1  UNL1       -0.3401
     28 O          12.8583   10.2196    0.0000 O.3     1  UNL1       -0.3868
     29 O          11.9634   12.7094    0.0000 O.3     1  UNL1       -0.3431
     30 O          12.8583   10.2196    0.0000 O.3     1  UNL1       -0.3841
     31 O          14.5786   11.2396    0.0000 O.3     1  UNL1       -0.3864
     32 O          14.5555   13.2394    0.0000 O.3     1  UNL1       -0.3866
     33 C           8.6342   -2.3991    0.0000 C.3     1  UNL1       -0.0193
     34 C           7.7580   -3.9440    0.0000 C.3     1  UNL1       -0.0225
     35 C           7.7701   -2.9025    0.0000 C.3     1  UNL1       -0.0257
     36 C           8.6303   -1.3991    0.0000 C.3     1  UNL1       -0.0028
     37 C           8.6581   -4.4683    0.0000 C.3     1  UNL1       -0.0253
     38 C           9.5461   -2.9025    0.0000 C.3     1  UNL1       -0.0463
     39 C           8.6706   -5.5532    0.0000 C.3     1  UNL1        0.0231
     40 C           9.5581   -3.9440    0.0000 C.3     1  UNL1       -0.0485
     41 C           7.7624   -0.9025    0.0000 C.2     1  UNL1       -0.0627
     42 C           6.8081   -4.4683    0.0000 C.3     1  UNL1       -0.0184
     43 C           7.7423    0.1390    0.0000 C.3     1  UNL1       -0.0007
     44 C           6.9021   -2.4058    0.0000 C.3     1  UNL1       -0.0306
     45 C           9.5383   -0.8888    0.0000 C.3     1  UNL1       -0.0162
     46 C           8.6383    0.6702    0.0000 C.3     1  UNL1        0.1000
     47 C           7.7331   -6.0993    0.0000 C.3     1  UNL1        0.0953
     48 C           9.5424    0.1528    0.0000 C.3     1  UNL1        0.0723
     49 C           9.6183   -2.2217    0.0000 C.3     1  UNL1       -0.0585
     50 C           6.7956   -5.5532    0.0000 C.3     1  UNL1        0.0825
     51 C           6.8939   -3.4407    0.0000 C.3     1  UNL1       -0.0589
     52 C           6.8983   -1.4058    0.0000 C.2     1  UNL1       -0.0836
     53 C           9.6158   -1.5690    0.0000 C.3     1  UNL1       -0.0552
     54 C           6.7884    0.6559    0.0000 C.3     1  UNL1       -0.0402
     55 C           8.6424    1.7552    0.0000 C.3     1  UNL1       -0.0338
     56 C           6.7674    1.7407    0.0000 C.3     1  UNL1       -0.0343
     57 C           9.6706   -5.5455    0.0000 C.3     1  UNL1        0.0523
     58 C           9.1773   -6.4154    0.0000 C.3     1  UNL1       -0.0547
     59 C           7.7007    2.2940    0.0000 C.3     1  UNL1       -0.0467
     60 C           9.4985    1.1802    0.0000 C.2     1  UNL1        0.3186
     61 C           6.2542    2.5989    0.0000 C.3     1  UNL1       -0.0598
     62 C           5.7676    1.7253    0.0000 C.3     1  UNL1       -0.0598
     63 C           6.8671   -7.5993    0.0000 C.3     1  UNL1        0.1884
     64 C           6.8671   -8.5994    0.0000 C.3     1  UNL1        0.1345
     65 C          10.3471    2.6901    0.0000 C.3     1  UNL1        0.2340
     66 C           6.0010   -9.0994    0.0000 C.3     1  UNL1        0.1206
     67 C           5.1350   -7.5993    0.0000 C.3     1  UNL1        0.1130
     68 C           5.1350   -8.5994    0.0000 C.3     1  UNL1        0.1123
     69 C          10.3355    3.6900    0.0000 C.3     1  UNL1        0.1520
     70 C          11.1957    4.2000    0.0000 C.3     1  UNL1        0.1155
     71 C           4.2690   -7.0993    0.0000 C.3     1  UNL1        0.0730
     72 C          12.0790    2.7101    0.0000 C.3     1  UNL1        0.0883
     73 C          12.0675    3.7100    0.0000 C.3     1  UNL1        0.1096
     74 C           5.1350  -10.5993    0.0000 C.3     1  UNL1        0.1884
     75 C          12.9508    2.2202    0.0000 C.3     1  UNL1       -0.0360
     76 C           9.4522    5.1799    0.0000 C.3     1  UNL1        0.1885
     77 C           4.2690  -10.0993    0.0000 C.3     1  UNL1        0.1341
     78 C           8.5805    5.6698    0.0000 C.3     1  UNL1        0.1341
     79 C           3.4030  -10.5993    0.0000 C.3     1  UNL1        0.1141
     80 C           4.2690  -12.0993    0.0000 C.3     1  UNL1        0.1130
     81 C           3.4030  -11.5993    0.0000 C.3     1  UNL1        0.1119
     82 C           8.5689    6.6698    0.0000 C.3     1  UNL1        0.1143
     83 C          10.3008    6.6898    0.0000 C.3     1  UNL1        0.0877
     84 C           9.4291    7.1798    0.0000 C.3     1  UNL1        0.1160
     85 C           4.2690  -13.0993    0.0000 C.3     1  UNL1        0.0730
     86 C          11.1610    7.1998    0.0000 C.3     1  UNL1       -0.0361
     87 C          10.2777    8.6897    0.0000 C.3     1  UNL1        0.1880
     88 C          10.2661    9.6896    0.0000 C.3     1  UNL1        0.1345
     89 C          11.1263   10.1996    0.0000 C.3     1  UNL1        0.1202
     90 C          12.0096    8.7097    0.0000 C.3     1  UNL1        0.0792
     91 C          11.9981    9.7096    0.0000 C.3     1  UNL1        0.1073
     92 C          11.9749   11.7095    0.0000 C.3     1  UNL1        0.1883
     93 C          12.8467   11.2195    0.0000 C.3     1  UNL1        0.1341
     94 C          13.7069   11.7295    0.0000 C.3     1  UNL1        0.1140
     95 C          12.8236   13.2194    0.0000 C.3     1  UNL1        0.0873
     96 C          13.6953   12.7295    0.0000 C.3     1  UNL1        0.1095
     97 C          12.8120   14.2193    0.0000 C.3     1  UNL1       -0.0361
     98 H           8.5045   -3.3303    0.0000 H       1  UNL1        0.0315
     99 H           9.3974   -4.8876    0.0000 H       1  UNL1        0.0313
    100 H          10.1581   -3.0015    0.0000 H       1  UNL1        0.0271
    101 H           9.7484   -2.3164    0.0000 H       1  UNL1        0.0271
    102 H           9.7739   -4.5252    0.0000 H       1  UNL1        0.0268
    103 H          10.1677   -3.8309    0.0000 H       1  UNL1        0.0268
    104 H           6.6058   -3.8822    0.0000 H       1  UNL1        0.0296
    105 H           6.1961   -4.5673    0.0000 H       1  UNL1        0.0296
    106 H           7.0162   -0.3029    0.0000 H       1  UNL1        0.0357
    107 H           6.2911   -2.3005    0.0000 H       1  UNL1        0.0310
    108 H           6.6923   -2.9892    0.0000 H       1  UNL1        0.0310
    109 H           9.7451   -1.4733    0.0000 H       1  UNL1        0.0299
    110 H          10.1496   -0.7850    0.0000 H       1  UNL1        0.0299
    111 H           8.2706   -6.4083    0.0000 H       1  UNL1        0.0629
    112 H           9.7533    0.7359    0.0000 H       1  UNL1        0.0605
    113 H           9.7283   -2.8318    0.0000 H       1  UNL1        0.0235
    114 H          10.2284   -2.1117    0.0000 H       1  UNL1        0.0235
    115 H           9.5083   -1.6115    0.0000 H       1  UNL1        0.0235
    116 H           6.2616   -5.2381    0.0000 H       1  UNL1        0.0619
    117 H           7.2060   -2.9050    0.0000 H       1  UNL1        0.0235
    118 H           6.3582   -3.1286    0.0000 H       1  UNL1        0.0235
    119 H           6.5818   -3.9764    0.0000 H       1  UNL1        0.0235
    120 H           6.3601   -1.0979    0.0000 H       1  UNL1        0.0572
    121 H           9.5105   -2.1800    0.0000 H       1  UNL1        0.0238
    122 H          10.2268   -1.6743    0.0000 H       1  UNL1        0.0238
    123 H           9.7211   -0.9580    0.0000 H       1  UNL1        0.0238
    124 H           6.1756    0.7502    0.0000 H       1  UNL1        0.0276
    125 H           6.5906    0.0683    0.0000 H       1  UNL1        0.0276
    126 H           9.2529    1.6467    0.0000 H       1  UNL1        0.0277
    127 H           8.8538    2.3380    0.0000 H       1  UNL1        0.0277
    128 H          10.2516   -5.3290    0.0000 H       1  UNL1        0.0563
    129 H           9.5582   -4.9358    0.0000 H       1  UNL1        0.0563
    130 H           8.6428   -6.7295    0.0000 H       1  UNL1        0.0237
    131 H           9.4914   -6.9499    0.0000 H       1  UNL1        0.0237
    132 H           9.7118   -6.1012    0.0000 H       1  UNL1        0.0237
    133 H           8.0962    2.7715    0.0000 H       1  UNL1        0.0271
    134 H           7.2980    2.7654    0.0000 H       1  UNL1        0.0271
    135 H          10.7392   -0.6034    0.0000 H       1  UNL1        0.2098
    136 H           5.3912   -5.7324    0.0000 H       1  UNL1        0.2099
    137 H           5.7580    2.3452    0.0000 H       1  UNL1        0.0235
    138 H           5.1476    1.7157    0.0000 H       1  UNL1        0.0235
    139 H           6.7862    2.9172    0.0000 H       1  UNL1        0.0235
    140 H           5.9359    3.1310    0.0000 H       1  UNL1        0.0235
    141 H           5.7220    2.2807    0.0000 H       1  UNL1        0.0235
    142 H           5.7771    1.1054    0.0000 H       1  UNL1        0.0235
    143 H           7.4040   -7.9093    0.0000 H       1  UNL1        0.0938
    144 H          10.7972   -6.4029    0.0000 H       1  UNL1        0.2094
    145 H           6.8671   -9.2194    0.0000 H       1  UNL1        0.0671
    146 H          10.3542    2.0701    0.0000 H       1  UNL1        0.1085
    147 H           5.4641   -9.4094    0.0000 H       1  UNL1        0.0651
    148 H           5.1350   -6.9793    0.0000 H       1  UNL1        0.0647
    149 H           4.5981   -8.2894    0.0000 H       1  UNL1        0.0647
    150 H          10.3283    4.3100    0.0000 H       1  UNL1        0.0687
    151 H           7.7331   -9.7194    0.0000 H       1  UNL1        0.2101
    152 H          11.7290    4.5162    0.0000 H       1  UNL1        0.0648
    153 H           3.6584   -6.9917    0.0000 H       1  UNL1        0.0584
    154 H           4.0569   -7.6820    0.0000 H       1  UNL1        0.0584
    155 H          12.0862    2.0901    0.0000 H       1  UNL1        0.0621
    156 H          12.6079    3.4063    0.0000 H       1  UNL1        0.0646
    157 H           3.7320   -8.7893    0.0000 H       1  UNL1        0.2100
    158 H           5.1350   -9.9794    0.0000 H       1  UNL1        0.0938
    159 H          12.6470    1.6797    0.0000 H       1  UNL1        0.0255
    160 H          13.4912    1.9164    0.0000 H       1  UNL1        0.0255
    161 H          13.2545    2.7606    0.0000 H       1  UNL1        0.0255
    162 H           8.9189    4.8637    0.0000 H       1  UNL1        0.0938
    163 H          11.7175    5.5161    0.0000 H       1  UNL1        0.2100
    164 H           3.7320   -5.7893    0.0000 H       1  UNL1        0.2095
    165 H           3.7320   -9.7893    0.0000 H       1  UNL1        0.0671
    166 H          13.4681    3.9162    0.0000 H       1  UNL1        0.2100
    167 H           8.0400    5.9736    0.0000 H       1  UNL1        0.0671
    168 H           3.9650   -9.9794    0.0000 H       1  UNL1        0.0648
    169 H           4.8059  -12.4093    0.0000 H       1  UNL1        0.0647
    170 H           3.4030  -12.2193    0.0000 H       1  UNL1        0.0647
    171 H           8.5617    7.2897    0.0000 H       1  UNL1        0.0648
    172 H          10.8413    6.3860    0.0000 H       1  UNL1        0.0621
    173 H           9.9624    7.4959    0.0000 H       1  UNL1        0.0650
    174 H           3.7320   -8.7893    0.0000 H       1  UNL1        0.2101
    175 H           3.6584  -12.9917    0.0000 H       1  UNL1        0.0584
    176 H           4.0569  -13.6820    0.0000 H       1  UNL1        0.0584
    177 H           7.1798    5.4636    0.0000 H       1  UNL1        0.2101
    178 H           2.0000  -10.4093    0.0000 H       1  UNL1        0.2100
    179 H          11.4772    6.6665    0.0000 H       1  UNL1        0.0255
    180 H          11.6943    7.5160    0.0000 H       1  UNL1        0.0255
    181 H          10.8448    7.7331    0.0000 H       1  UNL1        0.0255
    182 H           2.5369  -12.7193    0.0000 H       1  UNL1        0.2100
    183 H           7.6900    7.7797    0.0000 H       1  UNL1        0.2100
    184 H           5.1350  -14.2193    0.0000 H       1  UNL1        0.2095
    185 H           9.7372    8.9934    0.0000 H       1  UNL1        0.0937
    186 H          10.2590   10.3096    0.0000 H       1  UNL1        0.0671
    187 H          11.6596   10.5158    0.0000 H       1  UNL1        0.0651
    188 H          12.2284    8.1296    0.0000 H       1  UNL1        0.0587
    189 H          12.6189    8.8244    0.0000 H       1  UNL1        0.0587
    190 H          12.5386    9.4059    0.0000 H       1  UNL1        0.0643
    191 H           9.3872   10.7995    0.0000 H       1  UNL1        0.2101
    192 H          13.3987    9.9158    0.0000 H       1  UNL1        0.2100
    193 H          11.9821   11.0895    0.0000 H       1  UNL1        0.0938
    194 H          13.3872   10.9158    0.0000 H       1  UNL1        0.0671
    195 H          14.2402   12.0457    0.0000 H       1  UNL1        0.0648
    196 H          12.2831   13.5232    0.0000 H       1  UNL1        0.0621
    197 H          13.6881   13.3494    0.0000 H       1  UNL1        0.0646
    198 H          13.3987    9.9158    0.0000 H       1  UNL1        0.2101
    199 H          13.4320   14.2265    0.0000 H       1  UNL1        0.0255
    200 H          12.8048   14.8393    0.0000 H       1  UNL1        0.0255
    201 H          12.1920   14.2122    0.0000 H       1  UNL1        0.0255
    202 H          15.1119   11.5558    0.0000 H       1  UNL1        0.2100
    203 H          14.5483   13.8594    0.0000 H       1  UNL1        0.2100
@<TRIPOS>BOND
     1    47     1    1
     2    63     1    1
     3    48     2    1
     4     2   135    1
     5    50     3    1
     6     3   136    1
     7     4    57    1
     8     4   144    1
     9     5    60    1
    10    65     5    1
    11     6    60    2
    12     7    63    1
    13     7    67    1
    14    64     8    1
    15     8   151    1
    16     9    65    1
    17     9    72    1
    18    66    10    1
    19    74    10    1
    20    69    11    1
    21    76    11    1
    22    68    12    1
    23    12   157    1
    24    70    13    1
    25    13   163    1
    26    14    71    1
    27    14   164    1
    28    73    15    1
    29    15   166    1
    30    16    74    1
    31    16    80    1
    32    17    76    1
    33    17    83    1
    34    77    18    1
    35    18   174    1
    36    78    19    1
    37    19   177    1
    38    79    20    1
    39    20   178    1
    40    81    21    1
    41    21   182    1
    42    82    22    1
    43    22   183    1
    44    84    23    1
    45    87    23    1
    46    24    85    1
    47    24   184    1
    48    25    87    1
    49    25    90    1
    50    88    26    1
    51    26   191    1
    52    89    27    1
    53    92    27    1
    54    91    28    1
    55    28   192    1
    56    29    92    1
    57    29    95    1
    58    93    30    1
    59    30   198    1
    60    94    31    1
    61    31   202    1
    62    96    32    1
    63    32   203    1
    64    33    35    1
    65    33    36    1
    66    33    38    1
    67    33    49    1
    68    34    35    1
    69    34    37    1
    70    34    42    1
    71    34    51    1
    72    35    44    1
    73    35    98    1
    74    36    41    1
    75    36    45    1
    76    36    53    1
    77    37    39    1
    78    37    40    1
    79    37    99    1
    80    38    40    1
    81    38   100    1
    82    38   101    1
    83    39    47    1
    84    39    57    1
    85    39    58    1
    86    40   102    1
    87    40   103    1
    88    41    43    1
    89    41    52    2
    90    42    50    1
    91    42   104    1
    92    42   105    1
    93    43    46    1
    94    43    54    1
    95    43   106    1
    96    44    52    1
    97    44   107    1
    98    44   108    1
    99    45    48    1
   100    45   109    1
   101    45   110    1
   102    46    48    1
   103    46    55    1
   104    46    60    1
   105    47    50    1
   106    47   111    1
   107    48   112    1
   108    49   113    1
   109    49   114    1
   110    49   115    1
   111    50   116    1
   112    51   117    1
   113    51   118    1
   114    51   119    1
   115    52   120    1
   116    53   121    1
   117    53   122    1
   118    53   123    1
   119    54    56    1
   120    54   124    1
   121    54   125    1
   122    55    59    1
   123    55   126    1
   124    55   127    1
   125    56    59    1
   126    56    61    1
   127    56    62    1
   128    57   128    1
   129    57   129    1
   130    58   130    1
   131    58   131    1
   132    58   132    1
   133    59   133    1
   134    59   134    1
   135    61   139    1
   136    61   140    1
   137    61   141    1
   138    62   137    1
   139    62   138    1
   140    62   142    1
   141    63    64    1
   142    63   143    1
   143    64    66    1
   144    64   145    1
   145    65    69    1
   146    65   146    1
   147    66    68    1
   148    66   147    1
   149    67    68    1
   150    67    71    1
   151    67   148    1
   152    68   149    1
   153    69    70    1
   154    69   150    1
   155    70    73    1
   156    70   152    1
   157    71   153    1
   158    71   154    1
   159    72    73    1
   160    72    75    1
   161    72   155    1
   162    73   156    1
   163    74    77    1
   164    74   158    1
   165    75   159    1
   166    75   160    1
   167    75   161    1
   168    76    78    1
   169    76   162    1
   170    77    79    1
   171    77   165    1
   172    78    82    1
   173    78   167    1
   174    79    81    1
   175    79   168    1
   176    80    81    1
   177    80    85    1
   178    80   169    1
   179    81   170    1
   180    82    84    1
   181    82   171    1
   182    83    84    1
   183    83    86    1
   184    83   172    1
   185    84   173    1
   186    85   175    1
   187    85   176    1
   188    86   179    1
   189    86   180    1
   190    86   181    1
   191    87    88    1
   192    87   185    1
   193    88    89    1
   194    88   186    1
   195    89    91    1
   196    89   187    1
   197    90    91    1
   198    90   188    1
   199    90   189    1
   200    91   190    1
   201    92    93    1
   202    92   193    1
   203    93    94    1
   204    93   194    1
   205    94    96    1
   206    94   195    1
   207    95    96    1
   208    95    97    1
   209    95   196    1
   210    96   197    1
   211    97   199    1
   212    97   200    1
   213    97   201    1
