@<TRIPOS>MOLECULE
IMPHY013425
 76 80 0 0 0
SMALL
GASTEIGER

@<TRIPOS>ATOM
      1 O           5.1343    2.7816    0.0000 O.3     1  UNL1       -0.3609
      2 O           9.5065   -2.7837    0.0000 O.3     1  UNL1       -0.3313
      3 O           6.8740    4.7749    0.0000 O.3     1  UNL1       -0.3862
      4 O           5.1458    5.7816    0.0000 O.3     1  UNL1       -0.3865
      5 O           3.4099    4.7883    0.0000 O.3     1  UNL1       -0.3865
      6 O          11.2386   -2.7837    0.0000 O.3     1  UNL1       -0.4572
      7 O           9.5065   -5.7837    0.0000 O.3     1  UNL1       -0.3864
      8 O           7.7745   -4.7837    0.0000 O.3     1  UNL1       -0.3865
      9 O          11.2386   -4.7837    0.0000 O.3     1  UNL1       -0.3829
     10 O           2.5381    3.2916    0.0000 O.3     1  UNL1       -0.3924
     11 O           7.7381    4.2716    0.0000 O.3     1  UNL1       -0.4945
     12 O           5.9945    1.2783    0.0000 O.3     1  UNL1       -0.5054
     13 O           9.5025    1.2579    0.0000 O.2     1  UNL1       -0.4544
     14 O           6.9085   -3.2837    0.0000 O.3     1  UNL1       -0.3924
     15 O           6.8328   -0.2564    0.0000 O.2     1  UNL1       -0.2869
     16 O          12.9706   -1.7837    0.0000 O.3     1  UNL1       -0.5033
     17 C           6.0061    4.2783    0.0000 C.3     1  UNL1        0.1139
     18 C           5.1420    4.7816    0.0000 C.3     1  UNL1        0.1121
     19 C           6.0022    3.2783    0.0000 C.3     1  UNL1        0.1193
     20 C           4.2740    4.2850    0.0000 C.3     1  UNL1        0.1117
     21 C           4.2702    3.2850    0.0000 C.3     1  UNL1        0.1108
     22 C           6.8663    2.7750    0.0000 C.ar    1  UNL1        0.0676
     23 C           9.5065   -4.7837    0.0000 C.3     1  UNL1        0.1152
     24 C           8.6405   -4.2837    0.0000 C.3     1  UNL1        0.1120
     25 C          10.3726   -4.2837    0.0000 C.3     1  UNL1        0.1454
     26 C           8.6405   -3.2837    0.0000 C.3     1  UNL1        0.1140
     27 C           3.4022    2.7883    0.0000 C.3     1  UNL1        0.0729
     28 C          10.3726   -3.2837    0.0000 C.3     1  UNL1        0.2310
     29 C           6.8624    1.7750    0.0000 C.ar    1  UNL1        0.1404
     30 C           7.7342    3.2716    0.0000 C.ar    1  UNL1        0.1328
     31 C           7.7745   -2.7837    0.0000 C.3     1  UNL1        0.0731
     32 C           7.7265    1.2716    0.0000 C.ar    1  UNL1        0.1058
     33 C           8.5983    2.7683    0.0000 C.ar    1  UNL1        0.0237
     34 C           8.5945    1.7683    0.0000 C.ar    1  UNL1        0.1463
     35 C          11.2386   -1.7837    0.0000 C.ar    1  UNL1        0.1658
     36 C           7.7065    0.2302    0.0000 C.ar    1  UNL1        0.1966
     37 C           9.5065    0.2163    0.0000 C.ar    1  UNL1        0.1393
     38 C          10.3726   -0.2837    0.0000 C.ar    1  UNL1        0.0211
     39 C           8.6024   -0.3010    0.0000 C.ar    1  UNL1        0.0288
     40 C          10.3726   -1.2837    0.0000 C.ar    1  UNL1       -0.0055
     41 C          12.1046   -1.2837    0.0000 C.ar    1  UNL1        0.1586
     42 C           8.6060    4.7683    0.0000 C.3     1  UNL1        0.0788
     43 C          11.2386    0.2163    0.0000 C.ar    1  UNL1       -0.0474
     44 C          12.1046   -0.2837    0.0000 C.ar    1  UNL1       -0.0159
     45 H           6.5418    3.9662    0.0000 H       1  UNL1        0.0649
     46 H           5.6801    5.0896    0.0000 H       1  UNL1        0.0647
     47 H           5.9989    2.4283    0.0000 H       1  UNL1        0.0676
     48 H           4.2764    4.9050    0.0000 H       1  UNL1        0.0647
     49 H           4.2678    2.6650    0.0000 H       1  UNL1        0.0646
     50 H           8.9696   -5.0937    0.0000 H       1  UNL1        0.0648
     51 H           8.1036   -3.9737    0.0000 H       1  UNL1        0.0647
     52 H          10.3726   -4.9037    0.0000 H       1  UNL1        0.0683
     53 H           8.6405   -2.6637    0.0000 H       1  UNL1        0.0647
     54 H           3.0019    2.3149    0.0000 H       1  UNL1        0.0584
     55 H           3.7989    2.3118    0.0000 H       1  UNL1        0.0584
     56 H          10.3726   -2.6637    0.0000 H       1  UNL1        0.1084
     57 H           6.8764    5.3949    0.0000 H       1  UNL1        0.2100
     58 H           4.6101    6.0937    0.0000 H       1  UNL1        0.2100
     59 H           3.4123    5.4083    0.0000 H       1  UNL1        0.2100
     60 H           8.1730   -2.3087    0.0000 H       1  UNL1        0.0584
     61 H           7.3760   -2.3087    0.0000 H       1  UNL1        0.0584
     62 H           9.1365    3.0762    0.0000 H       1  UNL1        0.0691
     63 H          10.0435   -6.0937    0.0000 H       1  UNL1        0.2100
     64 H           7.7745   -5.4037    0.0000 H       1  UNL1        0.2100
     65 H          11.7755   -4.4737    0.0000 H       1  UNL1        0.2102
     66 H           2.0000    2.9837    0.0000 H       1  UNL1        0.2095
     67 H           5.9921    0.6583    0.0000 H       1  UNL1        0.2922
     68 H           8.5977   -0.9210    0.0000 H       1  UNL1        0.0693
     69 H           6.3715   -2.9737    0.0000 H       1  UNL1        0.2095
     70 H           9.8356   -1.5937    0.0000 H       1  UNL1        0.0662
     71 H           8.9140    4.2301    0.0000 H       1  UNL1        0.0660
     72 H           9.1442    5.0762    0.0000 H       1  UNL1        0.0660
     73 H           8.2981    5.3064    0.0000 H       1  UNL1        0.0660
     74 H          11.2386    0.8363    0.0000 H       1  UNL1        0.0626
     75 H          12.6415    0.0263    0.0000 H       1  UNL1        0.0655
     76 H          13.5076   -1.4737    0.0000 H       1  UNL1        0.2923
@<TRIPOS>BOND
     1     1    19    1
     2     1    21    1
     3     2    26    1
     4     2    28    1
     5     3    17    1
     6     3    57    1
     7    18     4    1
     8     4    58    1
     9    20     5    1
    10     5    59    1
    11    28     6    1
    12     6    35    1
    13    23     7    1
    14     7    63    1
    15    24     8    1
    16     8    64    1
    17     9    25    1
    18     9    65    1
    19    10    27    1
    20    10    66    1
    21    11    30    1
    22    11    42    1
    23    12    29    1
    24    12    67    1
    25    13    34   ar
    26    13    37   ar
    27    14    31    1
    28    14    69    1
    29    15    36    2
    30    16    41    1
    31    16    76    1
    32    17    18    1
    33    17    19    1
    34    17    45    1
    35    18    20    1
    36    18    46    1
    37    19    22    1
    38    19    47    1
    39    20    21    1
    40    20    48    1
    41    21    27    1
    42    21    49    1
    43    22    29   ar
    44    22    30   ar
    45    23    24    1
    46    23    25    1
    47    23    50    1
    48    24    26    1
    49    24    51    1
    50    25    28    1
    51    25    52    1
    52    26    31    1
    53    26    53    1
    54    27    54    1
    55    27    55    1
    56    28    56    1
    57    29    32   ar
    58    30    33   ar
    59    31    60    1
    60    31    61    1
    61    32    34   ar
    62    32    36   ar
    63    33    34   ar
    64    33    62    1
    65    35    40   ar
    66    35    41   ar
    67    36    39   ar
    68    37    38    1
    69    37    39   ar
    70    38    40   ar
    71    38    43   ar
    72    39    68    1
    73    40    70    1
    74    41    44   ar
    75    42    71    1
    76    42    72    1
    77    42    73    1
    78    43    44   ar
    79    43    74    1
    80    44    75    1
