@<TRIPOS>MOLECULE
IMPHY011316
 35 35 0 0 0
SMALL
GASTEIGER

@<TRIPOS>ATOM
      1 O           7.6751   -1.3157    0.0000 O.2     1  UNL1       -0.2971
      2 O           2.4608   -1.6759    0.0000 O.3     1  UNL1       -0.4806
      3 O           3.6197   -2.9630    0.0000 O.2     1  UNL1       -0.2510
      4 C           5.9150   -1.0370    0.0000 C.3     1  UNL1        0.0208
      5 C           5.1060   -1.6248    0.0000 C.3     1  UNL1       -0.0211
      6 C           5.4150   -2.5758    0.0000 C.3     1  UNL1       -0.0424
      7 C           5.9150   -0.0370    0.0000 C.3     1  UNL1       -0.0432
      8 C           6.4150   -2.5758    0.0000 C.3     1  UNL1        0.0064
      9 C           6.7240   -1.6248    0.0000 C.2     1  UNL1        0.1367
     10 C           4.1550   -1.3157    0.0000 C.3     1  UNL1        0.0482
     11 C           6.7810    0.4630    0.0000 C.3     1  UNL1       -0.0524
     12 C           6.7810    1.4630    0.0000 C.3     1  UNL1       -0.0533
     13 C           3.4118   -1.9849    0.0000 C.2     1  UNL1        0.3050
     14 C           7.6471    1.9630    0.0000 C.3     1  UNL1       -0.0559
     15 C           7.6471    2.9630    0.0000 C.3     1  UNL1       -0.0653
     16 H           6.4675   -0.7555    0.0000 H       1  UNL1        0.0380
     17 H           4.6676   -2.0632    0.0000 H       1  UNL1        0.0313
     18 H           4.8086   -2.7047    0.0000 H       1  UNL1        0.0272
     19 H           5.4798   -3.1924    0.0000 H       1  UNL1        0.0272
     20 H           5.7030    0.5456    0.0000 H       1  UNL1        0.0272
     21 H           5.3044   -0.1446    0.0000 H       1  UNL1        0.0272
     22 H           6.3502   -3.1924    0.0000 H       1  UNL1        0.0342
     23 H           7.0215   -2.7047    0.0000 H       1  UNL1        0.0342
     24 H           4.4460   -0.7683    0.0000 H       1  UNL1        0.0380
     25 H           3.6664   -0.9340    0.0000 H       1  UNL1        0.0380
     26 H           6.9931   -0.1196    0.0000 H       1  UNL1        0.0265
     27 H           7.3916    0.5707    0.0000 H       1  UNL1        0.0265
     28 H           6.5690    2.0456    0.0000 H       1  UNL1        0.0265
     29 H           6.1705    1.3554    0.0000 H       1  UNL1        0.0265
     30 H           7.8591    1.3804    0.0000 H       1  UNL1        0.0263
     31 H           8.2577    2.0707    0.0000 H       1  UNL1        0.0263
     32 H           8.2671    2.9630    0.0000 H       1  UNL1        0.0230
     33 H           7.6471    3.5830    0.0000 H       1  UNL1        0.0230
     34 H           7.0271    2.9630    0.0000 H       1  UNL1        0.0230
     35 H           2.0000   -2.0907    0.0000 H       1  UNL1        0.2951
@<TRIPOS>BOND
     1     1     9    2
     2     2    13    1
     3     2    35    1
     4     3    13    2
     5     4     5    1
     6     4     7    1
     7     4     9    1
     8     4    16    1
     9     5     6    1
    10     5    10    1
    11     5    17    1
    12     6     8    1
    13     6    18    1
    14     6    19    1
    15     7    11    1
    16     7    20    1
    17     7    21    1
    18     8     9    1
    19     8    22    1
    20     8    23    1
    21    10    13    1
    22    10    24    1
    23    10    25    1
    24    11    12    1
    25    11    26    1
    26    11    27    1
    27    12    14    1
    28    12    28    1
    29    12    29    1
    30    14    15    1
    31    14    30    1
    32    14    31    1
    33    15    32    1
    34    15    33    1
    35    15    34    1
