@<TRIPOS>MOLECULE
IMPHY017374
 51 50 0 0 0
SMALL
GASTEIGER

@<TRIPOS>ATOM
      1 O           2.8660    0.4400    0.0000 O.3     1  UNL1       -0.4649
      2 O           3.7320   -1.0600    0.0000 O.2     1  UNL1       -0.2456
      3 C          11.5263    0.4400    0.0000 C.3     1  UNL1       -0.0531
      4 C          10.6603   -0.0600    0.0000 C.3     1  UNL1       -0.0531
      5 C          12.3923   -0.0600    0.0000 C.3     1  UNL1       -0.0531
      6 C           9.7942    0.4400    0.0000 C.3     1  UNL1       -0.0531
      7 C          13.2583    0.4400    0.0000 C.3     1  UNL1       -0.0531
      8 C           8.9282   -0.0600    0.0000 C.3     1  UNL1       -0.0530
      9 C          14.1244   -0.0600    0.0000 C.3     1  UNL1       -0.0531
     10 C           8.0622    0.4400    0.0000 C.3     1  UNL1       -0.0528
     11 C          14.9904    0.4400    0.0000 C.3     1  UNL1       -0.0533
     12 C           7.1962   -0.0600    0.0000 C.3     1  UNL1       -0.0496
     13 C          15.8564   -0.0600    0.0000 C.3     1  UNL1       -0.0559
     14 C           6.3301    0.4400    0.0000 C.3     1  UNL1       -0.0343
     15 C          16.7224    0.4400    0.0000 C.3     1  UNL1       -0.0653
     16 C           5.4641   -0.0600    0.0000 C.2     1  UNL1       -0.0773
     17 C           4.5981    0.4400    0.0000 C.2     1  UNL1        0.0186
     18 C           3.7320   -0.0600    0.0000 C.2     1  UNL1        0.3314
     19 C           2.0000   -0.0600    0.0000 C.3     1  UNL1        0.0820
     20 H          11.9248    0.9149    0.0000 H       1  UNL1        0.0265
     21 H          11.1278    0.9149    0.0000 H       1  UNL1        0.0265
     22 H          10.2617   -0.5349    0.0000 H       1  UNL1        0.0265
     23 H          11.0588   -0.5349    0.0000 H       1  UNL1        0.0265
     24 H          11.9938   -0.5349    0.0000 H       1  UNL1        0.0265
     25 H          12.7908   -0.5349    0.0000 H       1  UNL1        0.0265
     26 H          10.1928    0.9149    0.0000 H       1  UNL1        0.0265
     27 H           9.3957    0.9149    0.0000 H       1  UNL1        0.0265
     28 H          13.6569    0.9149    0.0000 H       1  UNL1        0.0265
     29 H          12.8598    0.9149    0.0000 H       1  UNL1        0.0265
     30 H           8.5297   -0.5349    0.0000 H       1  UNL1        0.0265
     31 H           9.3267   -0.5349    0.0000 H       1  UNL1        0.0265
     32 H          13.7258   -0.5349    0.0000 H       1  UNL1        0.0265
     33 H          14.5229   -0.5349    0.0000 H       1  UNL1        0.0265
     34 H           8.4607    0.9149    0.0000 H       1  UNL1        0.0265
     35 H           7.6636    0.9149    0.0000 H       1  UNL1        0.0265
     36 H          15.3889    0.9149    0.0000 H       1  UNL1        0.0265
     37 H          14.5919    0.9149    0.0000 H       1  UNL1        0.0265
     38 H           6.7976   -0.5349    0.0000 H       1  UNL1        0.0268
     39 H           7.5947   -0.5349    0.0000 H       1  UNL1        0.0268
     40 H          15.4579   -0.5349    0.0000 H       1  UNL1        0.0263
     41 H          16.2549   -0.5349    0.0000 H       1  UNL1        0.0263
     42 H           6.7287    0.9149    0.0000 H       1  UNL1        0.0307
     43 H           5.9316    0.9149    0.0000 H       1  UNL1        0.0307
     44 H          17.0324   -0.0969    0.0000 H       1  UNL1        0.0230
     45 H          17.2594    0.7500    0.0000 H       1  UNL1        0.0230
     46 H          16.4124    0.9769    0.0000 H       1  UNL1        0.0230
     47 H           5.4641   -0.6800    0.0000 H       1  UNL1        0.0574
     48 H           4.5981    1.0600    0.0000 H       1  UNL1        0.0686
     49 H           1.6900    0.4769    0.0000 H       1  UNL1        0.0661
     50 H           1.4631   -0.3700    0.0000 H       1  UNL1        0.0661
     51 H           2.3100   -0.5969    0.0000 H       1  UNL1        0.0661
@<TRIPOS>BOND
     1     1    18    1
     2     1    19    1
     3     2    18    2
     4     3     4    1
     5     3     5    1
     6     3    20    1
     7     3    21    1
     8     4     6    1
     9     4    22    1
    10     4    23    1
    11     5     7    1
    12     5    24    1
    13     5    25    1
    14     6     8    1
    15     6    26    1
    16     6    27    1
    17     7     9    1
    18     7    28    1
    19     7    29    1
    20     8    10    1
    21     8    30    1
    22     8    31    1
    23     9    11    1
    24     9    32    1
    25     9    33    1
    26    10    12    1
    27    10    34    1
    28    10    35    1
    29    11    13    1
    30    11    36    1
    31    11    37    1
    32    12    14    1
    33    12    38    1
    34    12    39    1
    35    13    15    1
    36    13    40    1
    37    13    41    1
    38    14    16    1
    39    14    42    1
    40    14    43    1
    41    15    44    1
    42    15    45    1
    43    15    46    1
    44    16    17    2
    45    16    47    1
    46    17    18    1
    47    17    48    1
    48    19    49    1
    49    19    50    1
    50    19    51    1
