@<TRIPOS>MOLECULE
IMPHY006404
 32 32 0 0 0
SMALL
GASTEIGER

@<TRIPOS>ATOM
      1 O           3.0000    1.0000    0.0000 O.2     1  UNL1       -0.2876
      2 C           3.0000   -1.0000    0.0000 C.3     1  UNL1       -0.0026
      3 C           3.0000   -2.0000    0.0000 C.3     1  UNL1       -0.0252
      4 C           3.8660   -0.5000    0.0000 C.2     1  UNL1        0.0081
      5 C           2.0000   -1.0000    0.0000 C.3     1  UNL1       -0.0554
      6 C           2.5000   -0.1340    0.0000 C.3     1  UNL1       -0.0554
      7 C           4.7320   -1.0000    0.0000 C.2     1  UNL1       -0.0434
      8 C           3.8660   -2.5000    0.0000 C.2     1  UNL1       -0.0829
      9 C           4.7320   -2.0000    0.0000 C.2     1  UNL1       -0.0623
     10 C           3.8660    0.5000    0.0000 C.2     1  UNL1        0.1826
     11 C           5.5981   -0.5000    0.0000 C.3     1  UNL1       -0.0393
     12 C           4.7320    1.0000    0.0000 C.2     1  UNL1       -0.0188
     13 C           4.7320    2.0000    0.0000 C.2     1  UNL1       -0.0835
     14 C           5.5981    2.5000    0.0000 C.3     1  UNL1       -0.0464
     15 H           2.3894   -1.8923    0.0000 H       1  UNL1        0.0316
     16 H           2.7880   -2.5826    0.0000 H       1  UNL1        0.0316
     17 H           2.0000   -0.3800    0.0000 H       1  UNL1        0.0238
     18 H           1.3800   -1.0000    0.0000 H       1  UNL1        0.0238
     19 H           3.0369    0.1760    0.0000 H       1  UNL1        0.0238
     20 H           2.1900    0.4030    0.0000 H       1  UNL1        0.0238
     21 H           1.9631   -0.4440    0.0000 H       1  UNL1        0.0238
     22 H           2.0000   -1.6200    0.0000 H       1  UNL1        0.0238
     23 H           3.8660   -3.1200    0.0000 H       1  UNL1        0.0572
     24 H           5.2690   -2.3100    0.0000 H       1  UNL1        0.0617
     25 H           5.9081   -1.0369    0.0000 H       1  UNL1        0.0278
     26 H           6.1350   -0.1900    0.0000 H       1  UNL1        0.0278
     27 H           5.2881    0.0369    0.0000 H       1  UNL1        0.0278
     28 H           5.2690    0.6900    0.0000 H       1  UNL1        0.0653
     29 H           4.1951    2.3100    0.0000 H       1  UNL1        0.0570
     30 H           5.9081    1.9631    0.0000 H       1  UNL1        0.0272
     31 H           6.1350    2.8100    0.0000 H       1  UNL1        0.0272
     32 H           5.2881    3.0369    0.0000 H       1  UNL1        0.0272
@<TRIPOS>BOND
     1     1    10    2
     2     2     3    1
     3     2     4    1
     4     2     5    1
     5     2     6    1
     6     3     8    1
     7     3    15    1
     8     3    16    1
     9     4     7    2
    10     4    10    1
    11     5    17    1
    12     5    18    1
    13     5    22    1
    14     6    19    1
    15     6    20    1
    16     6    21    1
    17     7     9    1
    18     7    11    1
    19     8     9    2
    20     8    23    1
    21     9    24    1
    22    10    12    1
    23    11    25    1
    24    11    26    1
    25    11    27    1
    26    12    13    2
    27    12    28    1
    28    13    14    1
    29    13    29    1
    30    14    30    1
    31    14    31    1
    32    14    32    1
