@<TRIPOS>MOLECULE
IMPHY015126
 59 58 0 0 0
SMALL
GASTEIGER

@<TRIPOS>ATOM
      1 O          20.7235   -0.2500    0.0000 O.3     1  UNL1       -0.4649
      2 O          19.8574    1.2500    0.0000 O.2     1  UNL1       -0.2456
      3 O           2.5369    0.2500    0.0000 O.3     1  UNL1       -0.4775
      4 O           3.4030   -1.2500    0.0000 O.2     1  UNL1       -0.2458
      5 C          13.7953   -0.2500    0.0000 C.2     1  UNL1       -0.0504
      6 C           9.4651    0.2500    0.0000 C.2     1  UNL1       -0.0504
      7 C          12.9292    0.2500    0.0000 C.2     1  UNL1       -0.0588
      8 C          14.6613    0.2500    0.0000 C.2     1  UNL1       -0.0588
      9 C          10.3312   -0.2500    0.0000 C.2     1  UNL1       -0.0588
     10 C           8.5991   -0.2500    0.0000 C.2     1  UNL1       -0.0588
     11 C          17.2594   -0.2500    0.0000 C.2     1  UNL1       -0.0502
     12 C          12.0632   -0.2500    0.0000 C.2     1  UNL1       -0.0615
     13 C          11.1972    0.2500    0.0000 C.2     1  UNL1       -0.0615
     14 C          13.7953   -1.2500    0.0000 C.3     1  UNL1       -0.0397
     15 C          15.5273   -0.2500    0.0000 C.2     1  UNL1       -0.0613
     16 C           9.4651    1.2500    0.0000 C.3     1  UNL1       -0.0397
     17 C          16.3933    0.2500    0.0000 C.2     1  UNL1       -0.0588
     18 C           6.0010    0.2500    0.0000 C.2     1  UNL1       -0.0502
     19 C           7.7331    0.2500    0.0000 C.2     1  UNL1       -0.0613
     20 C           6.8671   -0.2500    0.0000 C.2     1  UNL1       -0.0588
     21 C          17.2594   -1.2500    0.0000 C.3     1  UNL1       -0.0397
     22 C          18.1254    0.2500    0.0000 C.2     1  UNL1       -0.0521
     23 C           6.0010    1.2500    0.0000 C.3     1  UNL1       -0.0397
     24 C           5.1350   -0.2500    0.0000 C.2     1  UNL1       -0.0521
     25 C          18.9914   -0.2500    0.0000 C.2     1  UNL1        0.0227
     26 C           4.2690    0.2500    0.0000 C.2     1  UNL1        0.0226
     27 C          19.8574    0.2500    0.0000 C.2     1  UNL1        0.3317
     28 C           3.4030   -0.2500    0.0000 C.2     1  UNL1        0.3296
     29 C          21.5895    0.2500    0.0000 C.3     1  UNL1        0.0820
     30 H          12.9292    0.8700    0.0000 H       1  UNL1        0.0620
     31 H          14.6613    0.8700    0.0000 H       1  UNL1        0.0620
     32 H          10.3312   -0.8700    0.0000 H       1  UNL1        0.0620
     33 H           8.5991   -0.8700    0.0000 H       1  UNL1        0.0620
     34 H          12.0632   -0.8700    0.0000 H       1  UNL1        0.0618
     35 H          11.1972    0.8700    0.0000 H       1  UNL1        0.0618
     36 H          13.1753   -1.2500    0.0000 H       1  UNL1        0.0278
     37 H          13.7953   -1.8700    0.0000 H       1  UNL1        0.0278
     38 H          14.4153   -1.2500    0.0000 H       1  UNL1        0.0278
     39 H          15.5273   -0.8700    0.0000 H       1  UNL1        0.0618
     40 H          10.0851    1.2500    0.0000 H       1  UNL1        0.0278
     41 H           9.4651    1.8700    0.0000 H       1  UNL1        0.0278
     42 H           8.8451    1.2500    0.0000 H       1  UNL1        0.0278
     43 H          16.3933    0.8700    0.0000 H       1  UNL1        0.0620
     44 H           7.7331    0.8700    0.0000 H       1  UNL1        0.0618
     45 H           6.8671   -0.8700    0.0000 H       1  UNL1        0.0620
     46 H          16.6394   -1.2500    0.0000 H       1  UNL1        0.0278
     47 H          17.2594   -1.8700    0.0000 H       1  UNL1        0.0278
     48 H          17.8794   -1.2500    0.0000 H       1  UNL1        0.0278
     49 H          18.1254    0.8700    0.0000 H       1  UNL1        0.0622
     50 H           6.6210    1.2500    0.0000 H       1  UNL1        0.0278
     51 H           6.0010    1.8700    0.0000 H       1  UNL1        0.0278
     52 H           5.3810    1.2500    0.0000 H       1  UNL1        0.0278
     53 H           5.1350   -0.8700    0.0000 H       1  UNL1        0.0622
     54 H          18.9914   -0.8700    0.0000 H       1  UNL1        0.0689
     55 H           4.2690    0.8700    0.0000 H       1  UNL1        0.0689
     56 H          21.8995   -0.2869    0.0000 H       1  UNL1        0.0661
     57 H          22.1264    0.5600    0.0000 H       1  UNL1        0.0661
     58 H          21.2795    0.7869    0.0000 H       1  UNL1        0.0661
     59 H           2.0000   -0.0600    0.0000 H       1  UNL1        0.2954
@<TRIPOS>BOND
     1     1    27    1
     2     1    29    1
     3     2    27    2
     4     3    28    1
     5     3    59    1
     6     4    28    2
     7     5     7    2
     8     5     8    1
     9     5    14    1
    10     6     9    2
    11     6    10    1
    12     6    16    1
    13     7    12    1
    14     7    30    1
    15     8    15    2
    16     8    31    1
    17     9    13    1
    18     9    32    1
    19    10    19    2
    20    10    33    1
    21    11    17    2
    22    11    21    1
    23    11    22    1
    24    12    13    2
    25    12    34    1
    26    13    35    1
    27    14    36    1
    28    14    37    1
    29    14    38    1
    30    15    17    1
    31    15    39    1
    32    16    40    1
    33    16    41    1
    34    16    42    1
    35    17    43    1
    36    18    20    2
    37    18    23    1
    38    18    24    1
    39    19    20    1
    40    19    44    1
    41    20    45    1
    42    21    46    1
    43    21    47    1
    44    21    48    1
    45    22    25    2
    46    22    49    1
    47    23    50    1
    48    23    51    1
    49    23    52    1
    50    24    26    2
    51    24    53    1
    52    25    27    1
    53    25    54    1
    54    26    28    1
    55    26    55    1
    56    29    56    1
    57    29    57    1
    58    29    58    1
