@<TRIPOS>MOLECULE
IMPHY011783
 53 54 0 0 0
SMALL
GASTEIGER

@<TRIPOS>ATOM
      1 O           3.7570   -2.8744    0.0000 O.3     1  UNL1       -0.3774
      2 O           3.6058    1.8123    0.0000 O.3     1  UNL1       -0.4500
      3 O           5.4300   -1.4262    0.0000 O.3     1  UNL1       -0.4578
      4 O           3.4982   -0.9085    0.0000 O.2     1  UNL1       -0.2476
      5 O           3.9885    0.8884    0.0000 O.2     1  UNL1       -0.2883
      6 O           2.0000    1.2196    0.0000 O.2     1  UNL1       -0.2453
      7 N           6.8022    2.4773    0.0000 N.3     1  UNL1       -0.3016
      8 C           2.7911   -1.6156    0.0000 C.3     1  UNL1       -0.0006
      9 C           3.7570   -1.8744    0.0000 C.3     1  UNL1        0.1620
     10 C           2.5322   -0.6497    0.0000 C.3     1  UNL1       -0.0155
     11 C           4.5718    1.5534    0.0000 C.3     1  UNL1        0.1663
     12 C           4.9544    2.4773    0.0000 C.3     1  UNL1        0.0045
     13 C           2.0840   -2.3227    0.0000 C.3     1  UNL1       -0.0590
     14 C           5.8783    2.8600    0.0000 C.3     1  UNL1        0.0027
     15 C           4.6230   -2.3744    0.0000 C.3     1  UNL1       -0.0253
     16 C           3.2394    0.0574    0.0000 C.2     1  UNL1        0.0328
     17 C           4.4641   -1.1673    0.0000 C.2     1  UNL1        0.3395
     18 C           5.8783    0.2469    0.0000 C.2     1  UNL1        0.0331
     19 C           4.9544    0.6296    0.0000 C.2     1  UNL1        0.2025
     20 C           7.1849    1.5534    0.0000 C.3     1  UNL1        0.0176
     21 C           6.1371   -0.7190    0.0000 C.3     1  UNL1        0.1207
     22 C           6.8022    0.6296    0.0000 C.2     1  UNL1       -0.0602
     23 C           2.9805    1.0233    0.0000 C.2     1  UNL1        0.3355
     24 C           4.2053   -0.2014    0.0000 C.2     1  UNL1       -0.0771
     25 C           7.5093    3.1844    0.0000 C.3     1  UNL1       -0.0124
     26 C           4.7491    0.0522    0.0000 C.3     1  UNL1       -0.0461
     27 H           3.0111   -2.4367    0.0000 H       1  UNL1        0.0334
     28 H           2.1766   -0.1418    0.0000 H       1  UNL1        0.0319
     29 H           1.9703   -0.9117    0.0000 H       1  UNL1        0.0319
     30 H           4.1958    2.3158    0.0000 H       1  UNL1        0.0819
     31 H           4.8735    3.0920    0.0000 H       1  UNL1        0.0318
     32 H           4.3397    2.5582    0.0000 H       1  UNL1        0.0318
     33 H           1.6456   -1.8843    0.0000 H       1  UNL1        0.0234
     34 H           1.6456   -2.7611    0.0000 H       1  UNL1        0.0234
     35 H           2.5224   -2.7611    0.0000 H       1  UNL1        0.0234
     36 H           6.2558    3.3519    0.0000 H       1  UNL1        0.0428
     37 H           5.5009    3.3519    0.0000 H       1  UNL1        0.0428
     38 H           4.3130   -2.9114    0.0000 H       1  UNL1        0.0263
     39 H           5.1600   -2.6844    0.0000 H       1  UNL1        0.0263
     40 H           4.9330   -1.8375    0.0000 H       1  UNL1        0.0263
     41 H           7.6768    1.1760    0.0000 H       1  UNL1        0.0470
     42 H           7.6768    1.9309    0.0000 H       1  UNL1        0.0470
     43 H           6.4928   -1.2269    0.0000 H       1  UNL1        0.0750
     44 H           6.6990   -0.4570    0.0000 H       1  UNL1        0.0750
     45 H           7.2406    0.1912    0.0000 H       1  UNL1        0.0590
     46 H           3.2201   -3.1844    0.0000 H       1  UNL1        0.2109
     47 H           4.7132   -0.5570    0.0000 H       1  UNL1        0.0574
     48 H           7.9477    2.7460    0.0000 H       1  UNL1        0.0391
     49 H           7.9477    3.6228    0.0000 H       1  UNL1        0.0391
     50 H           7.0709    3.6228    0.0000 H       1  UNL1        0.0391
     51 H           5.0111   -0.5097    0.0000 H       1  UNL1        0.0272
     52 H           5.3110    0.3142    0.0000 H       1  UNL1        0.0272
     53 H           4.4870    0.6141    0.0000 H       1  UNL1        0.0272
@<TRIPOS>BOND
     1     1     9    1
     2     1    46    1
     3     2    11    1
     4     2    23    1
     5     3    17    1
     6     3    21    1
     7     4    17    2
     8     5    19    2
     9     6    23    2
    10     7    14    1
    11     7    20    1
    12     7    25    1
    13     8     9    1
    14     8    10    1
    15     8    13    1
    16     8    27    1
    17     9    15    1
    18     9    17    1
    19    10    16    1
    20    10    28    1
    21    10    29    1
    22    11    12    1
    23    11    19    1
    24    11    30    1
    25    12    14    1
    26    12    31    1
    27    12    32    1
    28    13    33    1
    29    13    34    1
    30    13    35    1
    31    14    36    1
    32    14    37    1
    33    15    38    1
    34    15    39    1
    35    15    40    1
    36    16    23    1
    37    16    24    2
    38    18    19    1
    39    18    21    1
    40    18    22    2
    41    20    22    1
    42    20    41    1
    43    20    42    1
    44    21    43    1
    45    21    44    1
    46    22    45    1
    47    24    26    1
    48    24    47    1
    49    25    48    1
    50    25    49    1
    51    25    50    1
    52    26    51    1
    53    26    52    1
    54    26    53    1
