@<TRIPOS>MOLECULE
IMPHY017536
 72 72 0 0 0
SMALL
GASTEIGER

@<TRIPOS>ATOM
      1 O          12.3923   -1.2500    0.0000 O.3     1  UNL1       -0.4611
      2 O           8.9282   -3.2500    0.0000 O.3     1  UNL1       -0.4611
      3 O          10.6603   -1.2500    0.0000 O.2     1  UNL1       -0.2449
      4 O           9.7942   -1.7500    0.0000 O.2     1  UNL1       -0.2449
      5 C          14.9904    3.2500    0.0000 C.3     1  UNL1       -0.0507
      6 C           3.7320   -3.2500    0.0000 C.3     1  UNL1       -0.0507
      7 C          14.1244    2.7500    0.0000 C.3     1  UNL1       -0.0528
      8 C           4.5981   -2.7500    0.0000 C.3     1  UNL1       -0.0528
      9 C          14.9904    4.2500    0.0000 C.3     1  UNL1       -0.0467
     10 C           2.8660   -2.7500    0.0000 C.3     1  UNL1       -0.0467
     11 C          14.1244    1.7500    0.0000 C.3     1  UNL1       -0.0529
     12 C           5.4641   -3.2500    0.0000 C.3     1  UNL1       -0.0529
     13 C          13.2583    1.2500    0.0000 C.3     1  UNL1       -0.0500
     14 C           6.3301   -2.7500    0.0000 C.3     1  UNL1       -0.0500
     15 C          13.2583    0.2500    0.0000 C.3     1  UNL1       -0.0185
     16 C           7.1962   -3.2500    0.0000 C.3     1  UNL1       -0.0185
     17 C          15.8564    4.7500    0.0000 C.3     1  UNL1       -0.0627
     18 C          14.1244    4.7500    0.0000 C.3     1  UNL1       -0.0627
     19 C           2.0000   -3.2500    0.0000 C.3     1  UNL1       -0.0627
     20 C           2.8660   -1.7500    0.0000 C.3     1  UNL1       -0.0627
     21 C          12.3923   -0.2500    0.0000 C.3     1  UNL1        0.0928
     22 C           8.0622   -2.7500    0.0000 C.3     1  UNL1        0.0928
     23 C          11.5263   -1.7500    0.0000 C.2     1  UNL1        0.3400
     24 C           9.7942   -2.7500    0.0000 C.2     1  UNL1        0.3400
     25 C          11.5263   -2.7500    0.0000 C.ar    1  UNL1        0.0729
     26 C          10.6603   -3.2500    0.0000 C.ar    1  UNL1        0.0729
     27 C          12.3923   -3.2500    0.0000 C.ar    1  UNL1       -0.0470
     28 C          10.6603   -4.2500    0.0000 C.ar    1  UNL1       -0.0470
     29 C          12.3923   -4.2500    0.0000 C.ar    1  UNL1       -0.0609
     30 C          11.5263   -4.7500    0.0000 C.ar    1  UNL1       -0.0609
     31 H          15.2024    2.6674    0.0000 H       1  UNL1        0.0268
     32 H          15.6010    3.3577    0.0000 H       1  UNL1        0.0268
     33 H           3.3335   -3.7250    0.0000 H       1  UNL1        0.0268
     34 H           4.1306   -3.7250    0.0000 H       1  UNL1        0.0268
     35 H          13.9123    3.3326    0.0000 H       1  UNL1        0.0265
     36 H          13.5138    2.6423    0.0000 H       1  UNL1        0.0265
     37 H           4.9966   -2.2750    0.0000 H       1  UNL1        0.0265
     38 H           4.1996   -2.2750    0.0000 H       1  UNL1        0.0265
     39 H          15.5273    3.9400    0.0000 H       1  UNL1        0.0295
     40 H           2.8660   -3.3700    0.0000 H       1  UNL1        0.0295
     41 H          14.3364    1.1674    0.0000 H       1  UNL1        0.0265
     42 H          14.7349    1.8577    0.0000 H       1  UNL1        0.0265
     43 H           5.0656   -3.7250    0.0000 H       1  UNL1        0.0265
     44 H           5.8626   -3.7250    0.0000 H       1  UNL1        0.0265
     45 H          13.0463    1.8326    0.0000 H       1  UNL1        0.0266
     46 H          12.6477    1.1423    0.0000 H       1  UNL1        0.0266
     47 H           6.7287   -2.2750    0.0000 H       1  UNL1        0.0266
     48 H           5.9316   -2.2750    0.0000 H       1  UNL1        0.0266
     49 H          13.4704   -0.3326    0.0000 H       1  UNL1        0.0298
     50 H          13.8689    0.3577    0.0000 H       1  UNL1        0.0298
     51 H           6.7976   -3.7250    0.0000 H       1  UNL1        0.0298
     52 H           7.5947   -3.7250    0.0000 H       1  UNL1        0.0298
     53 H          16.1664    4.2131    0.0000 H       1  UNL1        0.0232
     54 H          16.3933    5.0600    0.0000 H       1  UNL1        0.0232
     55 H          15.5464    5.2869    0.0000 H       1  UNL1        0.0232
     56 H          14.4344    5.2869    0.0000 H       1  UNL1        0.0232
     57 H          13.5874    5.0600    0.0000 H       1  UNL1        0.0232
     58 H          13.8144    4.2131    0.0000 H       1  UNL1        0.0232
     59 H           1.6900   -2.7131    0.0000 H       1  UNL1        0.0232
     60 H           1.4631   -3.5600    0.0000 H       1  UNL1        0.0232
     61 H           2.3100   -3.7869    0.0000 H       1  UNL1        0.0232
     62 H           3.4860   -1.7500    0.0000 H       1  UNL1        0.0232
     63 H           2.8660   -1.1300    0.0000 H       1  UNL1        0.0232
     64 H           2.2460   -1.7500    0.0000 H       1  UNL1        0.0232
     65 H          12.1803    0.3326    0.0000 H       1  UNL1        0.0697
     66 H          11.7817   -0.3577    0.0000 H       1  UNL1        0.0697
     67 H           8.4607   -2.2750    0.0000 H       1  UNL1        0.0697
     68 H           7.6636   -2.2750    0.0000 H       1  UNL1        0.0697
     69 H          12.9292   -2.9400    0.0000 H       1  UNL1        0.0626
     70 H          10.1233   -4.5600    0.0000 H       1  UNL1        0.0626
     71 H          12.9292   -4.5600    0.0000 H       1  UNL1        0.0618
     72 H          11.5263   -5.3700    0.0000 H       1  UNL1        0.0618
@<TRIPOS>BOND
     1     1    21    1
     2     1    23    1
     3     2    22    1
     4     2    24    1
     5     3    23    2
     6     4    24    2
     7     5     7    1
     8     5     9    1
     9     5    31    1
    10     5    32    1
    11     6     8    1
    12     6    10    1
    13     6    33    1
    14     6    34    1
    15     7    11    1
    16     7    35    1
    17     7    36    1
    18     8    12    1
    19     8    37    1
    20     8    38    1
    21     9    17    1
    22     9    18    1
    23     9    39    1
    24    10    19    1
    25    10    20    1
    26    10    40    1
    27    11    13    1
    28    11    41    1
    29    11    42    1
    30    12    14    1
    31    12    43    1
    32    12    44    1
    33    13    15    1
    34    13    45    1
    35    13    46    1
    36    14    16    1
    37    14    47    1
    38    14    48    1
    39    15    21    1
    40    15    49    1
    41    15    50    1
    42    16    22    1
    43    16    51    1
    44    16    52    1
    45    17    53    1
    46    17    54    1
    47    17    55    1
    48    18    56    1
    49    18    57    1
    50    18    58    1
    51    19    59    1
    52    19    60    1
    53    19    61    1
    54    20    62    1
    55    20    63    1
    56    20    64    1
    57    21    65    1
    58    21    66    1
    59    22    67    1
    60    22    68    1
    61    23    25    1
    62    24    26    1
    63    25    26   ar
    64    25    27   ar
    65    26    28   ar
    66    27    29   ar
    67    27    69    1
    68    28    30   ar
    69    28    70    1
    70    29    30   ar
    71    29    71    1
    72    30    72    1
