@<TRIPOS>MOLECULE
IMPHY010779
 59 65 0 0 0
SMALL
GASTEIGER

@<TRIPOS>ATOM
      1 O          18.3750   -1.3339    0.0000 O.3     1  UNL1       -0.3622
      2 C          19.5019   -2.0008    0.0000 C.3     1  UNL1        0.0769
      3 C          19.5019   -3.3346    0.0000 C.3     1  UNL1        0.0235
      4 C          18.3750   -3.9556    0.0000 C.3     1  UNL1        0.0070
      5 C          17.2711   -3.3806    0.0000 C.3     1  UNL1        0.0552
      6 C          16.1212   -2.7367    0.0000 C.3     1  UNL1        0.1504
      7 C          14.9484   -3.3806    0.0000 C.3     1  UNL1        0.0093
      8 C          14.9484   -4.7145    0.0000 C.3     1  UNL1       -0.0011
      9 C          13.7985   -5.3814    0.0000 C.3     1  UNL1       -0.0002
     10 C          12.6946   -4.7145    0.0000 C.3     1  UNL1       -0.0000
     11 C          11.5217   -5.3814    0.0000 C.3     1  UNL1        0.0002
     12 C          11.5217   -6.7153    0.0000 C.3     1  UNL1        0.0047
     13 C          10.3719   -7.3822    0.0000 C.3     1  UNL1        0.0557
     14 C           9.1990   -6.7153    0.0000 C.3     1  UNL1        0.1202
     15 C           9.1990   -5.3814    0.0000 C.3     1  UNL1        0.0297
     16 C          10.3719   -4.7145    0.0000 C.3     1  UNL1        0.0025
     17 C          17.2251   -2.0238    0.0000 C.3     1  UNL1        0.1438
     18 C          17.2711   -4.7145    0.0000 C.3     1  UNL1        0.0049
     19 C          16.1212   -5.3814    0.0000 C.3     1  UNL1       -0.0001
     20 C          13.7985   -2.7367    0.0000 C.3     1  UNL1       -0.0015
     21 C          12.6946   -3.3806    0.0000 C.3     1  UNL1       -0.0002
     22 C          13.7985   -6.7153    0.0000 C.3     1  UNL1       -0.0000
     23 C          12.6946   -7.3822    0.0000 C.3     1  UNL1        0.0002
     24 C          20.6977   -1.3339    0.0000 C.3     1  UNL1        0.0543
     25 C          21.8246   -2.0238    0.0000 C.3     1  UNL1        0.1840
     26 O          22.9975   -1.3798    0.0000 O.3     1  UNL1       -0.2204
     27 O          16.1212   -1.3798    0.0000 O.3     1  UNL1       -0.2234
     28 C          14.9484   -6.1173    0.0000 C.3     1  UNL1       -0.0002
     29 C          13.7985   -4.0706    0.0000 C.3     1  UNL1       -0.0000
     30 C          11.5217   -4.0706    0.0000 C.3     1  UNL1        0.0000
     31 C          11.0388   -8.5091    0.0000 C.3     1  UNL1        0.1843
     32 O          12.3726   -8.5091    0.0000 O.3     1  UNL1       -0.2203
     33 C           9.6819   -8.5091    0.0000 C.3     1  UNL1        0.0050
     34 O           8.0721   -7.3822    0.0000 O.3     1  UNL1       -0.3311
     35 C           6.8992   -6.7153    0.0000 C.3     1  UNL1        0.2661
     36 O           6.8992   -5.3814    0.0000 O.3     1  UNL1       -0.3257
     37 C           5.7724   -4.7145    0.0000 C.3     1  UNL1        0.1835
     38 C           4.6225   -5.3814    0.0000 C.3     1  UNL1        0.2143
     39 C           4.6225   -6.7153    0.0000 C.3     1  UNL1        0.2166
     40 C           5.7724   -7.3822    0.0000 C.3     1  UNL1        0.2066
     41 C          20.6977    0.0000    0.0000 C.3     1  UNL1        0.0048
     42 C           5.7724   -3.3806    0.0000 C.3     1  UNL1        0.2142
     43 O           4.6225   -2.7367    0.0000 O.3     1  UNL1       -0.2176
     44 O           3.4496   -4.7145    0.0000 O.3     1  UNL1       -0.2176
     45 O           3.4496   -7.3822    0.0000 O.3     1  UNL1       -0.2175
     46 O           5.7724   -8.7160    0.0000 O.3     1  UNL1       -0.3231
     47 C           4.6225   -9.3600    0.0000 C.3     1  UNL1        0.2696
     48 O           3.4496   -8.7160    0.0000 O.3     1  UNL1       -0.3256
     49 C           2.2997   -9.3600    0.0000 C.3     1  UNL1        0.1835
     50 C           2.2997  -10.7168    0.0000 C.3     1  UNL1        0.2144
     51 C           3.4496  -11.3607    0.0000 C.3     1  UNL1        0.2198
     52 C           4.6225  -10.7168    0.0000 C.3     1  UNL1        0.2406
     53 C           1.1269   -8.7160    0.0000 C.3     1  UNL1        0.2142
     54 O           0.0000   -9.3600    0.0000 O.3     1  UNL1       -0.2176
     55 O           1.1269  -11.3607    0.0000 O.3     1  UNL1       -0.2176
     56 O           3.4496  -12.6946    0.0000 O.3     1  UNL1       -0.2174
     57 O           5.7724  -11.3607    0.0000 O.3     1  UNL1       -0.2149
     58 H          19.4789   -0.6439    0.0000 H       1  UNL1        0.0609
     59 H          14.9484   -2.0238    0.0000 H       1  UNL1        0.0343
@<TRIPOS>BOND
     1     1    17    1
     2     1     2    1
     3     2     3    1
     4     2    24    1
     5     2    58    1
     6     3     4    1
     7     5     4    1
     8     5     6    1
     9     5    18    1
    10     5    17    1
    11     6     7    1
    12     6    27    1
    13     7     8    1
    14     7    20    1
    15     7    59    1
    16     8     9    1
    17     8    19    1
    18     8    28    1
    19     9    10    1
    20     9    22    1
    21     9    29    1
    22    10    11    1
    23    10    21    1
    24    11    12    1
    25    11    16    1
    26    11    30    1
    27    12    13    1
    28    12    23    1
    29    13    14    1
    30    13    33    1
    31    13    31    1
    32    14    15    1
    33    14    34    1
    34    15    16    1
    35    18    19    1
    36    20    21    1
    37    22    23    1
    38    24    25    1
    39    24    41    1
    40    25    26    1
    41    31    32    1
    42    35    34    1
    43    35    36    1
    44    35    40    1
    45    36    37    1
    46    37    38    1
    47    37    42    1
    48    38    39    1
    49    38    44    1
    50    39    40    1
    51    39    45    1
    52    40    46    1
    53    42    43    1
    54    47    46    1
    55    47    48    1
    56    47    52    1
    57    48    49    1
    58    49    50    1
    59    49    53    1
    60    50    51    1
    61    50    55    1
    62    51    52    1
    63    51    56    1
    64    52    57    1
    65    53    54    1
