@<TRIPOS>MOLECULE
IMPHY007437
 19 18 0 0 0
SMALL
GASTEIGER

@<TRIPOS>ATOM
      1 O           7.7331   -0.0950    0.0000 O.3     1  UNL1       -0.4795
      2 OXT         6.8671    1.4050    0.0000 O.2     1  UNL1       -0.2492
      3 O           3.4030    1.4050    0.0000 O.2     1  UNL1       -0.2531
      4 N           4.2690   -0.0950    0.0000 N.am    1  UNL1       -0.2976
      5 N           6.0010   -1.0950    0.0000 N.3     1  UNL1       -0.3172
      6 N           2.5369   -0.0950    0.0000 N.am    1  UNL1       -0.3134
      7 CA          6.0010   -0.0950    0.0000 C.3     1  UNL1        0.1189
      8 C           5.1350    0.4050    0.0000 C.3     1  UNL1        0.0386
      9 C           6.8671    0.4050    0.0000 C.2     1  UNL1        0.3233
     10 C           3.4030    0.4050    0.0000 C.2     1  UNL1        0.2971
     11 HA          6.5380   -0.4050    0.0000 H       1  UNL1        0.0590
     12 H           5.5335    0.8799    0.0000 H       1  UNL1        0.0483
     13 H           4.7365    0.8799    0.0000 H       1  UNL1        0.0483
     14 H           4.2690   -0.7150    0.0000 H       1  UNL1        0.1503
     15 H1          5.4641   -1.4050    0.0000 H       1  UNL1        0.1190
     16 H2          6.5380   -1.4050    0.0000 H       1  UNL1        0.1190
     17 H           8.2700    0.2150    0.0000 H       1  UNL1        0.2951
     18 H           2.0000    0.2150    0.0000 H       1  UNL1        0.1465
     19 H           2.5369   -0.7150    0.0000 H       1  UNL1        0.1465
@<TRIPOS>BOND
     1     1     9    1
     2     1    17    1
     3     2     9    2
     4     3    10    2
     5     4     8    1
     6     4    10   am
     7     4    14    1
     8     7     5    1
     9     5    15    1
    10     5    16    1
    11     6    10   am
    12     6    18    1
    13     6    19    1
    14     7     8    1
    15     7     9    1
    16     7    11    1
    17     8    12    1
    18     8    13    1
