@<TRIPOS>MOLECULE
IMPHY008800
 83 87 0 0 0
SMALL
GASTEIGER

@<TRIPOS>ATOM
      1 O           8.1381    0.9083    0.0000 O.3     1  UNL1       -0.4512
      2 O           8.4120   -1.6749    0.0000 O.3     1  UNL1       -0.4496
      3 O           9.8628   -1.1824    0.0000 O.3     1  UNL1       -0.3846
      4 O           6.4291   -1.4139    0.0000 O.3     1  UNL1       -0.4424
      5 O           9.6040    1.1977    0.0000 O.3     1  UNL1       -0.4584
      6 O           5.6638    0.4339    0.0000 O.3     1  UNL1       -0.4780
      7 O           7.2640    1.0967    0.0000 O.2     1  UNL1       -0.2467
      8 O           9.6343    1.6872    0.0000 O.2     1  UNL1       -0.2449
      9 O           6.8118   -2.3378    0.0000 O.2     1  UNL1       -0.2449
     10 O           6.8897    4.8090    0.0000 O.3     1  UNL1       -0.5028
     11 O           8.7108    2.8831    0.0000 O.2     1  UNL1       -0.2449
     12 O           7.7503    5.3058    0.0000 O.3     1  UNL1       -0.5028
     13 O           5.1080    1.7502    0.0000 O.3     1  UNL1       -0.5032
     14 O           5.1080    3.7985    0.0000 O.3     1  UNL1       -0.5009
     15 O           5.0550   -0.3595    0.0000 O.2     1  UNL1       -0.2449
     16 O           9.5162    6.3436    0.0000 O.3     1  UNL1       -0.5009
     17 O          11.2901    5.3195    0.0000 O.3     1  UNL1       -0.5032
     18 O           7.3511   -5.9028    0.0000 O.3     1  UNL1       -0.5032
     19 O          10.5515   -4.5771    0.0000 O.3     1  UNL1       -0.5032
     20 O           9.3340   -6.1638    0.0000 O.3     1  UNL1       -0.5009
     21 O           2.2373   -2.6090    0.0000 O.3     1  UNL1       -0.5032
     22 O           4.9855   -4.7178    0.0000 O.3     1  UNL1       -0.5032
     23 O           3.0026   -4.4568    0.0000 O.3     1  UNL1       -0.5009
     24 C           8.6381    0.0423    0.0000 C.3     1  UNL1        0.1729
     25 C           8.0293   -0.7510    0.0000 C.3     1  UNL1        0.1897
     26 C           9.6040   -0.2165    0.0000 C.3     1  UNL1        0.1296
     27 C           7.0379   -0.6205    0.0000 C.3     1  UNL1        0.2389
     28 C          10.3111    0.4906    0.0000 C.3     1  UNL1        0.1222
     29 C           6.6552    0.3034    0.0000 C.2     1  UNL1        0.3499
     30 C           8.6381    1.7744    0.0000 C.2     1  UNL1        0.3405
     31 C           7.7721    2.2744    0.0000 C.ar    1  UNL1        0.0740
     32 C           7.7721    3.2744    0.0000 C.ar    1  UNL1        0.0458
     33 C           8.6381    3.7744    0.0000 C.ar    1  UNL1        0.0458
     34 C           9.5041    3.2744    0.0000 C.ar    1  UNL1        0.0740
     35 C           7.8032   -2.4683    0.0000 C.2     1  UNL1        0.3399
     36 C           9.5041    2.2744    0.0000 C.2     1  UNL1        0.3401
     37 C           6.8781    1.7397    0.0000 C.ar    1  UNL1       -0.0017
     38 C           6.8781    3.8090    0.0000 C.ar    1  UNL1        0.1708
     39 C           5.4377   -1.2834    0.0000 C.2     1  UNL1        0.3403
     40 C           8.6220    4.8159    0.0000 C.ar    1  UNL1        0.1708
     41 C           8.1859   -3.3922    0.0000 C.ar    1  UNL1        0.0661
     42 C          10.4141    3.7812    0.0000 C.ar    1  UNL1       -0.0017
     43 C           5.9720    2.2535    0.0000 C.ar    1  UNL1        0.1628
     44 C           5.9720    3.2952    0.0000 C.ar    1  UNL1        0.2012
     45 C           9.5201    5.3436    0.0000 C.ar    1  UNL1        0.2012
     46 C          10.4221    4.8228    0.0000 C.ar    1  UNL1        0.1628
     47 C           4.8289   -2.0767    0.0000 C.ar    1  UNL1        0.0661
     48 C           9.1774   -3.5227    0.0000 C.ar    1  UNL1       -0.0023
     49 C           7.5772   -4.1855    0.0000 C.ar    1  UNL1       -0.0023
     50 C           5.2116   -3.0006    0.0000 C.ar    1  UNL1       -0.0023
     51 C           3.8375   -1.9462    0.0000 C.ar    1  UNL1       -0.0023
     52 C           7.9599   -5.1094    0.0000 C.ar    1  UNL1        0.1628
     53 C           9.5601   -4.4466    0.0000 C.ar    1  UNL1        0.1628
     54 C           8.9513   -5.2399    0.0000 C.ar    1  UNL1        0.2006
     55 C           3.2287   -2.7395    0.0000 C.ar    1  UNL1        0.1628
     56 C           4.6028   -3.7939    0.0000 C.ar    1  UNL1        0.1628
     57 C           3.6114   -3.6634    0.0000 C.ar    1  UNL1        0.2006
     58 H           8.0194    0.0829    0.0000 H       1  UNL1        0.0801
     59 H           7.6519   -1.2429    0.0000 H       1  UNL1        0.0816
     60 H           9.1656   -0.6549    0.0000 H       1  UNL1        0.0666
     61 H           6.4232   -0.5396    0.0000 H       1  UNL1        0.0893
     62 H          10.7495    0.0522    0.0000 H       1  UNL1        0.0725
     63 H          10.7495    0.9290    0.0000 H       1  UNL1        0.0725
     64 H          10.4617   -1.3429    0.0000 H       1  UNL1        0.2101
     65 H           6.8853    1.1197    0.0000 H       1  UNL1        0.0664
     66 H          10.9474    3.4650    0.0000 H       1  UNL1        0.0664
     67 H           5.4265    1.0067    0.0000 H       1  UNL1        0.2952
     68 H           9.5548   -3.0308    0.0000 H       1  UNL1        0.0663
     69 H           6.9625   -4.1046    0.0000 H       1  UNL1        0.0663
     70 H           6.3564    5.1251    0.0000 H       1  UNL1        0.2923
     71 H           5.8263   -3.0815    0.0000 H       1  UNL1        0.0663
     72 H           3.6002   -1.3734    0.0000 H       1  UNL1        0.0663
     73 H           7.7431    5.9258    0.0000 H       1  UNL1        0.2923
     74 H           4.5698    3.4906    0.0000 H       1  UNL1        0.2924
     75 H           4.5698    2.0581    0.0000 H       1  UNL1        0.2923
     76 H          10.0519    6.6557    0.0000 H       1  UNL1        0.2924
     77 H          11.8258    5.0074    0.0000 H       1  UNL1        0.2923
     78 H           6.7364   -5.8218    0.0000 H       1  UNL1        0.2923
     79 H          10.7888   -5.1499    0.0000 H       1  UNL1        0.2923
     80 H           8.9566   -6.6557    0.0000 H       1  UNL1        0.2924
     81 H           2.0000   -2.0362    0.0000 H       1  UNL1        0.2923
     82 H           4.6081   -5.2097    0.0000 H       1  UNL1        0.2923
     83 H           2.3879   -4.3758    0.0000 H       1  UNL1        0.2924
@<TRIPOS>BOND
     1     1    24    1
     2     1    30    1
     3     2    25    1
     4     2    35    1
     5     3    26    1
     6     3    64    1
     7     4    27    1
     8     4    39    1
     9     5    28    1
    10     5    36    1
    11     6    29    1
    12     6    67    1
    13     7    29    2
    14     8    30    2
    15     9    35    2
    16    10    38    1
    17    10    70    1
    18    11    36    2
    19    12    40    1
    20    12    73    1
    21    13    43    1
    22    13    75    1
    23    14    44    1
    24    14    74    1
    25    15    39    2
    26    16    45    1
    27    16    76    1
    28    17    46    1
    29    17    77    1
    30    18    52    1
    31    18    78    1
    32    19    53    1
    33    19    79    1
    34    20    54    1
    35    20    80    1
    36    21    55    1
    37    21    81    1
    38    22    56    1
    39    22    82    1
    40    23    57    1
    41    23    83    1
    42    24    25    1
    43    24    26    1
    44    24    58    1
    45    25    27    1
    46    25    59    1
    47    26    28    1
    48    26    60    1
    49    27    29    1
    50    27    61    1
    51    28    62    1
    52    28    63    1
    53    30    31    1
    54    31    32   ar
    55    31    37   ar
    56    32    33    1
    57    32    38   ar
    58    33    34   ar
    59    33    40   ar
    60    34    36    1
    61    34    42   ar
    62    35    41    1
    63    37    43   ar
    64    37    65    1
    65    38    44   ar
    66    39    47    1
    67    40    45   ar
    68    41    48   ar
    69    41    49   ar
    70    42    46   ar
    71    42    66    1
    72    43    44   ar
    73    45    46   ar
    74    47    50   ar
    75    47    51   ar
    76    48    53   ar
    77    48    68    1
    78    49    52   ar
    79    49    69    1
    80    50    56   ar
    81    50    71    1
    82    51    55   ar
    83    51    72    1
    84    52    54   ar
    85    53    54   ar
    86    55    57   ar
    87    56    57   ar
