@<TRIPOS>MOLECULE
IMPHY001339
 116 123 0 0 0
SMALL
GASTEIGER

@<TRIPOS>ATOM
      1 O           6.8102   -4.8424    0.0000 O.3     1  UNL1       -0.4570
      2 O           8.0777   -2.8876    0.0000 O.3     1  UNL1       -0.3733
      3 O           8.8208   -3.5568    0.0000 O.3     1  UNL1       -0.4658
      4 O           8.6130   -4.5349    0.0000 O.2     1  UNL1       -0.2474
      5 O           8.1801    1.6026    0.0000 O.3     1  UNL1       -0.4947
      6 O           8.0974   -6.0013    0.0000 O.2     1  UNL1       -0.2512
      7 O           6.5287    0.2897    0.0000 O.3     1  UNL1       -0.4670
      8 O           5.2439    0.3346    0.0000 O.2     1  UNL1       -0.2494
      9 O           9.1069    4.6482    0.0000 O.2     1  UNL1       -0.2974
     10 O           6.6453    6.5366    0.0000 O.2     1  UNL1       -0.2793
     11 N           4.3838   -2.6136    0.0000 N.3     1  UNL1       -0.2939
     12 N           7.4632   -1.6131    0.0000 N.pl3   1  UNL1       -0.3252
     13 N           4.6681    1.6662    0.0000 N.ar    1  UNL1       -0.3565
     14 N           6.8864    4.8214    0.0000 N.am    1  UNL1       -0.3034
     15 C           5.9235   -2.1134    0.0000 C.3     1  UNL1        0.0369
     16 C           5.2980   -2.8080    0.0000 C.3     1  UNL1        0.0348
     17 C           5.5869   -3.6970    0.0000 C.3     1  UNL1        0.0453
     18 C           6.8378   -2.3077    0.0000 C.3     1  UNL1        0.0772
     19 C           7.1266   -3.1967    0.0000 C.3     1  UNL1        0.2195
     20 C           5.5384   -1.0777    0.0000 C.3     1  UNL1       -0.0272
     21 C           6.5012   -3.8913    0.0000 C.3     1  UNL1        0.1542
     22 C           6.2601   -0.5298    0.0000 C.ar    1  UNL1       -0.0162
     23 C           4.0949   -1.7247    0.0000 C.3     1  UNL1        0.0005
     24 C           5.8959   -4.6480    0.0000 C.3     1  UNL1       -0.0418
     25 C           7.1744   -0.7241    0.0000 C.ar    1  UNL1        0.0372
     26 C           4.9614   -4.3916    0.0000 C.2     1  UNL1       -0.0755
     27 C           3.7583   -3.3083    0.0000 C.3     1  UNL1        0.0175
     28 C           4.0472   -4.1973    0.0000 C.2     1  UNL1       -0.0733
     29 C           7.8698   -3.8658    0.0000 C.2     1  UNL1        0.3446
     30 C           5.9713    0.3592    0.0000 C.ar    1  UNL1       -0.0481
     31 C           8.4143   -1.3040    0.0000 C.3     1  UNL1        0.0011
     32 C           5.2268   -5.3912    0.0000 C.3     1  UNL1       -0.0643
     33 C           7.7998   -0.0295    0.0000 C.ar    1  UNL1        0.0017
     34 C           6.5967    1.0538    0.0000 C.ar    1  UNL1        0.0172
     35 C           7.5110    0.8595    0.0000 C.ar    1  UNL1        0.1265
     36 C           6.2877    2.0049    0.0000 C.3     1  UNL1        0.1361
     37 C           7.1192   -5.7934    0.0000 C.2     1  UNL1        0.3043
     38 C           7.2388    2.3139    0.0000 C.3     1  UNL1       -0.0228
     39 C           5.3605    2.3795    0.0000 C.ar    1  UNL1        0.0418
     40 C           5.9131    1.0777    0.0000 C.2     1  UNL1        0.3235
     41 C           6.4501   -6.5366    0.0000 C.3     1  UNL1        0.0332
     42 C           9.5640   -4.2259    0.0000 C.3     1  UNL1        0.0818
     43 C           7.7687    3.1620    0.0000 C.3     1  UNL1       -0.0169
     44 C           4.8910    3.2624    0.0000 C.ar    1  UNL1       -0.0162
     45 C           7.6295    4.1522    0.0000 C.3     1  UNL1        0.0177
     46 C           9.1583    1.3947    0.0000 C.3     1  UNL1        0.0788
     47 C           8.7468    2.9540    0.0000 C.3     1  UNL1        0.0101
     48 C           5.0990    4.2406    0.0000 C.3     1  UNL1       -0.0095
     49 C           3.9125    3.0873    0.0000 C.ar    1  UNL1        0.0032
     50 C           3.7750    2.1028    0.0000 C.ar    1  UNL1        0.0470
     51 C           5.8870    4.8562    0.0000 C.3     1  UNL1        0.0185
     52 C           9.4160    3.6972    0.0000 C.2     1  UNL1        0.1334
     53 C           3.1059    3.7366    0.0000 C.ar    1  UNL1       -0.0523
     54 C           2.8214    1.6993    0.0000 C.ar    1  UNL1       -0.0378
     55 C           7.6676    0.4497    0.0000 C.3     1  UNL1        0.0817
     56 C           7.2610    5.7485    0.0000 C.2     1  UNL1        0.2025
     57 C           2.1432    3.3553    0.0000 C.ar    1  UNL1       -0.0611
     58 C          10.3941    3.4893    0.0000 C.3     1  UNL1        0.0030
     59 C           2.0000    2.3298    0.0000 C.ar    1  UNL1       -0.0598
     60 C          11.0632    4.2324    0.0000 C.3     1  UNL1       -0.0586
     61 H           5.0354   -1.9996    0.0000 H       1  UNL1        0.0482
     62 H           7.6692   -2.4844    0.0000 H       1  UNL1        0.0544
     63 H           6.1147   -0.8491    0.0000 H       1  UNL1        0.0287
     64 H           5.2972   -0.5066    0.0000 H       1  UNL1        0.0287
     65 H           7.1076   -4.0202    0.0000 H       1  UNL1        0.0779
     66 H           3.8617   -1.1502    0.0000 H       1  UNL1        0.0427
     67 H           3.5125   -1.9372    0.0000 H       1  UNL1        0.0427
     68 H           6.2776   -5.1366    0.0000 H       1  UNL1        0.0273
     69 H           6.4433   -4.3569    0.0000 H       1  UNL1        0.0273
     70 H           5.1530   -4.9812    0.0000 H       1  UNL1        0.0577
     71 H           3.3766   -2.8197    0.0000 H       1  UNL1        0.0470
     72 H           3.2109   -3.5994    0.0000 H       1  UNL1        0.0470
     73 H           3.6323   -4.6580    0.0000 H       1  UNL1        0.0582
     74 H           5.3648    0.4881    0.0000 H       1  UNL1        0.0625
     75 H           8.4925   -2.4269    0.0000 H       1  UNL1        0.2111
     76 H           8.6059   -1.8937    0.0000 H       1  UNL1        0.0428
     77 H           9.0039   -1.1124    0.0000 H       1  UNL1        0.0428
     78 H           8.2227   -0.7144    0.0000 H       1  UNL1        0.0428
     79 H           4.7660   -4.9763    0.0000 H       1  UNL1        0.0230
     80 H           4.8119   -5.8519    0.0000 H       1  UNL1        0.0230
     81 H           5.6875   -5.8060    0.0000 H       1  UNL1        0.0230
     82 H           8.4063   -0.1584    0.0000 H       1  UNL1        0.0673
     83 H           7.2532    1.6941    0.0000 H       1  UNL1        0.0286
     84 H           7.8367    2.1500    0.0000 H       1  UNL1        0.0286
     85 H           5.9894   -6.1217    0.0000 H       1  UNL1        0.0342
     86 H           6.0352   -6.9973    0.0000 H       1  UNL1        0.0342
     87 H           6.9108   -6.9514    0.0000 H       1  UNL1        0.0342
     88 H           9.1491   -4.6866    0.0000 H       1  UNL1        0.0661
     89 H          10.0247   -4.6408    0.0000 H       1  UNL1        0.0661
     90 H           9.9788   -3.7652    0.0000 H       1  UNL1        0.0661
     91 H           8.2221    3.5848    0.0000 H       1  UNL1        0.0320
     92 H           4.3572    1.1298    0.0000 H       1  UNL1        0.1656
     93 H           8.2424    4.0588    0.0000 H       1  UNL1        0.0467
     94 H           7.8948    4.7126    0.0000 H       1  UNL1        0.0467
     95 H           9.0294    0.7883    0.0000 H       1  UNL1        0.0660
     96 H           9.7647    1.2658    0.0000 H       1  UNL1        0.0660
     97 H           9.2872    2.0012    0.0000 H       1  UNL1        0.0660
     98 H           8.5146    2.3792    0.0000 H       1  UNL1        0.0345
     99 H           9.2726    2.6255    0.0000 H       1  UNL1        0.0345
    100 H           4.8734    4.8181    0.0000 H       1  UNL1        0.0329
    101 H           4.4810    4.1902    0.0000 H       1  UNL1        0.0329
    102 H           6.0854    5.4436    0.0000 H       1  UNL1        0.0468
    103 H           5.3812    5.2148    0.0000 H       1  UNL1        0.0468
    104 H           3.1988    4.3496    0.0000 H       1  UNL1        0.0624
    105 H           2.7427    1.0843    0.0000 H       1  UNL1        0.0638
    106 H           7.7538   -0.1642    0.0000 H       1  UNL1        0.0661
    107 H           8.2815    0.5360    0.0000 H       1  UNL1        0.0661
    108 H           7.5813    1.0637    0.0000 H       1  UNL1        0.0661
    109 H           7.8749    5.8348    0.0000 H       1  UNL1        0.1253
    110 H           1.6558    3.7384    0.0000 H       1  UNL1        0.0618
    111 H          10.1618    2.9144    0.0000 H       1  UNL1        0.0339
    112 H          10.9199    3.1607    0.0000 H       1  UNL1        0.0339
    113 H           1.4262    2.0948    0.0000 H       1  UNL1        0.0618
    114 H          11.5240    3.8176    0.0000 H       1  UNL1        0.0234
    115 H          11.4781    4.6932    0.0000 H       1  UNL1        0.0234
    116 H          10.6025    4.6473    0.0000 H       1  UNL1        0.0234
@<TRIPOS>BOND
     1    21     1    1
     2     1    37    1
     3    19     2    1
     4     2    75    1
     5     3    29    1
     6     3    42    1
     7     4    29    2
     8     5    35    1
     9     5    46    1
    10     6    37    2
    11     7    40    1
    12     7    55    1
    13     8    40    2
    14     9    52    2
    15    10    56    2
    16    11    16    1
    17    11    23    1
    18    11    27    1
    19    12    18    1
    20    12    25    1
    21    12    31    1
    22    13    39   ar
    23    13    50   ar
    24    13    92    1
    25    14    45    1
    26    14    51    1
    27    14    56   am
    28    15    16    1
    29    15    18    1
    30    15    20    1
    31    15    22    1
    32    16    17    1
    33    16    61    1
    34    17    21    1
    35    17    24    1
    36    17    26    1
    37    18    19    1
    38    18    62    1
    39    19    21    1
    40    19    29    1
    41    20    23    1
    42    20    63    1
    43    20    64    1
    44    21    65    1
    45    22    25   ar
    46    22    30   ar
    47    23    66    1
    48    23    67    1
    49    24    32    1
    50    24    68    1
    51    24    69    1
    52    25    33   ar
    53    26    28    2
    54    26    70    1
    55    27    28    1
    56    27    71    1
    57    27    72    1
    58    28    73    1
    59    30    34   ar
    60    30    74    1
    61    31    76    1
    62    31    77    1
    63    31    78    1
    64    32    79    1
    65    32    80    1
    66    32    81    1
    67    33    35   ar
    68    33    82    1
    69    34    35   ar
    70    34    36    1
    71    36    38    1
    72    36    39    1
    73    36    40    1
    74    37    41    1
    75    38    43    1
    76    38    83    1
    77    38    84    1
    78    39    44   ar
    79    41    85    1
    80    41    86    1
    81    41    87    1
    82    42    88    1
    83    42    89    1
    84    42    90    1
    85    43    45    1
    86    43    47    1
    87    43    91    1
    88    44    48    1
    89    44    49   ar
    90    45    93    1
    91    45    94    1
    92    46    95    1
    93    46    96    1
    94    46    97    1
    95    47    52    1
    96    47    98    1
    97    47    99    1
    98    48    51    1
    99    48   100    1
   100    48   101    1
   101    49    50   ar
   102    49    53   ar
   103    50    54   ar
   104    51   102    1
   105    51   103    1
   106    52    58    1
   107    53    57   ar
   108    53   104    1
   109    54    59   ar
   110    54   105    1
   111    55   106    1
   112    55   107    1
   113    55   108    1
   114    56   109    1
   115    57    59   ar
   116    57   110    1
   117    58    60    1
   118    58   111    1
   119    58   112    1
   120    59   113    1
   121    60   114    1
   122    60   115    1
   123    60   116    1
