@<TRIPOS>MOLECULE
IMPHY002630
 78 82 0 0 0
SMALL
GASTEIGER

@<TRIPOS>ATOM
      1 O           6.5251   -1.5958    0.0000 O.3     1  UNL1       -0.3834
      2 O           3.8674   -3.1442    0.0000 O.3     1  UNL1       -0.3847
      3 O           7.7820   -1.8510    0.0000 O.3     1  UNL1       -0.4544
      4 O           4.7810   -3.6650    0.0000 O.3     1  UNL1       -0.3889
      5 O           2.9755    0.4613    0.0000 O.2     1  UNL1       -0.2920
      6 O           9.0712    2.8162    0.0000 O.3     1  UNL1       -0.4572
      7 O           9.4284   -1.3129    0.0000 O.2     1  UNL1       -0.2511
      8 O          10.3604    3.9730    0.0000 O.2     1  UNL1       -0.2453
      9 C           5.6591   -1.0958    0.0000 C.3     1  UNL1       -0.0013
     10 C           6.5251   -0.5958    0.0000 C.3     1  UNL1        0.1185
     11 C           4.7931   -0.5958    0.0000 C.3     1  UNL1       -0.0202
     12 C           6.5251    0.4042    0.0000 C.3     1  UNL1        0.0222
     13 C           3.8831   -1.1026    0.0000 C.3     1  UNL1        0.0646
     14 C           3.8751   -2.1442    0.0000 C.3     1  UNL1        0.1077
     15 C           4.7931    0.4042    0.0000 C.3     1  UNL1       -0.0480
     16 C           5.6591    0.9042    0.0000 C.3     1  UNL1       -0.0408
     17 C           5.6752   -2.1373    0.0000 C.3     1  UNL1       -0.0182
     18 C           7.4714   -0.9005    0.0000 C.3     1  UNL1        0.1511
     19 C           4.7771   -2.6650    0.0000 C.3     1  UNL1        0.0854
     20 C           7.4714    0.7090    0.0000 C.2     1  UNL1       -0.0548
     21 C           8.0550   -0.0958    0.0000 C.2     1  UNL1       -0.0409
     22 C           6.5251    1.4042    0.0000 C.3     1  UNL1       -0.0530
     23 C           3.8908   -0.1026    0.0000 C.3     1  UNL1       -0.0495
     24 C           2.9396   -2.6940    0.0000 C.3     1  UNL1       -0.0020
     25 C           2.9562   -0.5385    0.0000 C.2     1  UNL1        0.1647
     26 C           7.7820    1.6595    0.0000 C.3     1  UNL1        0.0154
     27 C           2.0000   -2.1514    0.0000 C.2     1  UNL1       -0.0779
     28 C           2.0084   -1.0665    0.0000 C.2     1  UNL1       -0.0224
     29 C           8.7605    1.8657    0.0000 C.3     1  UNL1        0.1132
     30 C           7.1142    2.4038    0.0000 C.3     1  UNL1       -0.0553
     31 C           9.4284    1.1214    0.0000 C.3     1  UNL1        0.0066
     32 C           8.7605   -2.0572    0.0000 C.2     1  UNL1        0.3046
     33 C          10.4069    1.3276    0.0000 C.2     1  UNL1       -0.0595
     34 C           9.0712   -3.0078    0.0000 C.3     1  UNL1        0.0333
     35 C          10.0497    3.0224    0.0000 C.2     1  UNL1        0.3351
     36 C          10.7175    2.2781    0.0000 C.2     1  UNL1        0.0326
     37 C          11.0747    0.5833    0.0000 C.3     1  UNL1       -0.0429
     38 C          11.6960    2.4844    0.0000 C.3     1  UNL1       -0.0330
     39 H           6.3985   -1.5151    0.0000 H       1  UNL1        0.0334
     40 H           5.5292   -0.1708    0.0000 H       1  UNL1        0.0315
     41 H           4.5810    0.9868    0.0000 H       1  UNL1        0.0269
     42 H           4.1825    0.2966    0.0000 H       1  UNL1        0.0269
     43 H           6.0576    1.3792    0.0000 H       1  UNL1        0.0275
     44 H           5.2606    1.3792    0.0000 H       1  UNL1        0.0275
     45 H           5.8932   -2.7177    0.0000 H       1  UNL1        0.0295
     46 H           6.2843   -2.0218    0.0000 H       1  UNL1        0.0295
     47 H           8.0838   -0.9967    0.0000 H       1  UNL1        0.0809
     48 H           5.3158   -2.9719    0.0000 H       1  UNL1        0.0622
     49 H           8.6750   -0.0958    0.0000 H       1  UNL1        0.0609
     50 H           7.1451    1.4042    0.0000 H       1  UNL1        0.0239
     51 H           6.5251    2.0242    0.0000 H       1  UNL1        0.0239
     52 H           5.9051    1.4042    0.0000 H       1  UNL1        0.0239
     53 H           4.5108   -0.1074    0.0000 H       1  UNL1        0.0240
     54 H           3.8956    0.5173    0.0000 H       1  UNL1        0.0240
     55 H           3.2708   -0.0979    0.0000 H       1  UNL1        0.0240
     56 H           2.5423   -3.1699    0.0000 H       1  UNL1        0.0336
     57 H           3.3406   -3.1668    0.0000 H       1  UNL1        0.0336
     58 H           7.9746    2.2488    0.0000 H       1  UNL1        0.0379
     59 H           7.0621   -1.9058    0.0000 H       1  UNL1        0.2104
     60 H           3.3280   -3.4500    0.0000 H       1  UNL1        0.2103
     61 H           1.4619   -2.4594    0.0000 H       1  UNL1        0.0574
     62 H           1.4750   -0.7503    0.0000 H       1  UNL1        0.0649
     63 H           5.3191   -3.9730    0.0000 H       1  UNL1        0.2099
     64 H           9.5923    2.0410    0.0000 H       1  UNL1        0.0743
     65 H           7.5756    2.8178    0.0000 H       1  UNL1        0.0237
     66 H           6.7001    2.8652    0.0000 H       1  UNL1        0.0237
     67 H           6.6527    1.9897    0.0000 H       1  UNL1        0.0237
     68 H           8.9020    0.7938    0.0000 H       1  UNL1        0.0346
     69 H           9.6596    0.5461    0.0000 H       1  UNL1        0.0346
     70 H           8.4819   -3.2004    0.0000 H       1  UNL1        0.0342
     71 H           9.2638   -3.5971    0.0000 H       1  UNL1        0.0342
     72 H           9.6605   -2.8152    0.0000 H       1  UNL1        0.0342
     73 H          10.6133    0.1692    0.0000 H       1  UNL1        0.0275
     74 H          11.4888    0.1218    0.0000 H       1  UNL1        0.0275
     75 H          11.5362    0.9974    0.0000 H       1  UNL1        0.0275
     76 H          11.8239    1.8777    0.0000 H       1  UNL1        0.0280
     77 H          12.3027    2.6122    0.0000 H       1  UNL1        0.0280
     78 H          11.5682    3.0910    0.0000 H       1  UNL1        0.0280
@<TRIPOS>BOND
     1    10     1    1
     2     1    59    1
     3    14     2    1
     4     2    60    1
     5    18     3    1
     6     3    32    1
     7    19     4    1
     8     4    63    1
     9     5    25    2
    10     6    29    1
    11     6    35    1
    12     7    32    2
    13     8    35    2
    14     9    10    1
    15     9    11    1
    16     9    17    1
    17     9    39    1
    18    10    12    1
    19    10    18    1
    20    11    13    1
    21    11    15    1
    22    11    40    1
    23    12    16    1
    24    12    20    1
    25    12    22    1
    26    13    14    1
    27    13    23    1
    28    13    25    1
    29    14    19    1
    30    14    24    1
    31    15    16    1
    32    15    41    1
    33    15    42    1
    34    16    43    1
    35    16    44    1
    36    17    19    1
    37    17    45    1
    38    17    46    1
    39    18    21    1
    40    18    47    1
    41    19    48    1
    42    20    21    2
    43    20    26    1
    44    21    49    1
    45    22    50    1
    46    22    51    1
    47    22    52    1
    48    23    53    1
    49    23    54    1
    50    23    55    1
    51    24    27    1
    52    24    56    1
    53    24    57    1
    54    25    28    1
    55    26    29    1
    56    26    30    1
    57    26    58    1
    58    27    28    2
    59    27    61    1
    60    28    62    1
    61    29    31    1
    62    29    64    1
    63    30    65    1
    64    30    66    1
    65    30    67    1
    66    31    33    1
    67    31    68    1
    68    31    69    1
    69    32    34    1
    70    33    36    2
    71    33    37    1
    72    34    70    1
    73    34    71    1
    74    34    72    1
    75    35    36    1
    76    36    38    1
    77    37    73    1
    78    37    74    1
    79    37    75    1
    80    38    76    1
    81    38    77    1
    82    38    78    1
