@<TRIPOS>MOLECULE
IMPHY006325
 25 26 0 0 0
SMALL
GASTEIGER

@<TRIPOS>ATOM
      1 O           2.0159   -2.1718    0.0000 O.2     1  UNL1       -0.2960
      2 C           5.4490    0.2320    0.0000 C.3     1  UNL1       -0.0249
      3 C           4.3089    1.1891    0.0000 C.3     1  UNL1       -0.0313
      4 C           4.0501    0.2232    0.0000 C.3     1  UNL1       -0.0074
      5 C           3.5723    2.1718    0.0000 C.3     1  UNL1       -0.0420
      6 C           2.2756    0.8780    0.0000 C.3     1  UNL1       -0.0307
      7 C           2.8290   -0.6424    0.0000 C.2     1  UNL1       -0.0085
      8 C           5.9490   -0.6340    0.0000 C.3     1  UNL1       -0.0590
      9 C           6.3150    0.7320    0.0000 C.3     1  UNL1       -0.0590
     10 C           2.0000   -0.0833    0.0000 C.2     1  UNL1       -0.0772
     11 C           2.8639   -1.6418    0.0000 C.2     1  UNL1        0.1462
     12 H           4.7592    1.6153    0.0000 H       1  UNL1        0.0309
     13 H           4.2401   -0.3669    0.0000 H       1  UNL1        0.0355
     14 H           3.8901    2.7041    0.0000 H       1  UNL1        0.0274
     15 H           2.9591    2.2637    0.0000 H       1  UNL1        0.0274
     16 H           2.2706    1.4980    0.0000 H       1  UNL1        0.0310
     17 H           1.6613    0.9618    0.0000 H       1  UNL1        0.0310
     18 H           5.4121   -0.9440    0.0000 H       1  UNL1        0.0235
     19 H           6.2590   -1.1709    0.0000 H       1  UNL1        0.0235
     20 H           6.4859   -0.3240    0.0000 H       1  UNL1        0.0235
     21 H           6.6250    0.1951    0.0000 H       1  UNL1        0.0235
     22 H           6.8520    1.0420    0.0000 H       1  UNL1        0.0235
     23 H           6.0050    1.2690    0.0000 H       1  UNL1        0.0235
     24 H           1.4174   -0.2953    0.0000 H       1  UNL1        0.0576
     25 H           3.4114   -1.9329    0.0000 H       1  UNL1        0.1078
@<TRIPOS>BOND
     1     1    11    2
     2     2     3    1
     3     2     4    1
     4     2     8    1
     5     2     9    1
     6     3     5    1
     7     3     6    1
     8     3    12    1
     9     4     5    1
    10     4     7    1
    11     4    13    1
    12     5    14    1
    13     5    15    1
    14     6    10    1
    15     6    16    1
    16     6    17    1
    17     7    10    2
    18     7    11    1
    19     8    18    1
    20     8    19    1
    21     8    20    1
    22     9    21    1
    23     9    22    1
    24     9    23    1
    25    10    24    1
    26    11    25    1
