@<TRIPOS>MOLECULE
IMPHY002275
 63 66 0 0 0
SMALL
GASTEIGER

@<TRIPOS>ATOM
      1 O           6.0010    0.5950    0.0000 O.2     1  UNL1       -0.4702
      2 O           6.8671   -0.9050    0.0000 O.3     1  UNL1       -0.3096
      3 O          10.2629    1.0950    0.0000 O.3     1  UNL1       -0.4576
      4 O           5.1350   -0.9050    0.0000 O.3     1  UNL1       -0.3404
      5 O           6.8671   -2.9050    0.0000 O.3     1  UNL1       -0.3841
      6 O           6.0010    3.5950    0.0000 O.3     1  UNL1       -0.4773
      7 O           5.1350   -3.9050    0.0000 O.3     1  UNL1       -0.3864
      8 O           3.4030   -2.9050    0.0000 O.3     1  UNL1       -0.3865
      9 O           7.7331    3.5950    0.0000 O.2     1  UNL1       -0.2454
     10 O          10.2629    2.8270    0.0000 O.2     1  UNL1       -0.2449
     11 O           2.5369   -1.4050    0.0000 O.3     1  UNL1       -0.3924
     12 O          13.7629    0.2290    0.0000 O.3     1  UNL1       -0.5067
     13 C           7.7331    0.5950    0.0000 C.3     1  UNL1        0.0348
     14 C           7.7331    1.5950    0.0000 C.3     1  UNL1        0.0060
     15 C           8.6793    0.2903    0.0000 C.3     1  UNL1        0.0024
     16 C           9.2629    1.0950    0.0000 C.3     1  UNL1        0.1070
     17 C           8.6793    1.8997    0.0000 C.3     1  UNL1       -0.0078
     18 C           6.8671    0.0950    0.0000 C.3     1  UNL1        0.2072
     19 C           6.8671    2.0950    0.0000 C.2     1  UNL1        0.0742
     20 C           8.9900   -0.6603    0.0000 C.3     1  UNL1       -0.0586
     21 C           6.0010    1.5950    0.0000 C.2     1  UNL1        0.0981
     22 C           6.0010   -1.4050    0.0000 C.3     1  UNL1        0.1918
     23 C           6.0010   -2.4050    0.0000 C.3     1  UNL1        0.1342
     24 C           6.8671    3.0950    0.0000 C.2     1  UNL1        0.3360
     25 C           5.1350   -2.9050    0.0000 C.3     1  UNL1        0.1141
     26 C           4.2690   -2.4050    0.0000 C.3     1  UNL1        0.1119
     27 C           4.2690   -1.4050    0.0000 C.3     1  UNL1        0.1130
     28 C          10.7629    1.9610    0.0000 C.2     1  UNL1        0.3396
     29 C           3.4030   -0.9050    0.0000 C.3     1  UNL1        0.0730
     30 C          11.7629    1.9610    0.0000 C.ar    1  UNL1        0.0624
     31 C          12.2629    1.0950    0.0000 C.ar    1  UNL1       -0.0062
     32 C          12.2629    2.8270    0.0000 C.ar    1  UNL1       -0.0475
     33 C          13.2629    1.0950    0.0000 C.ar    1  UNL1        0.1176
     34 C          13.2629    2.8270    0.0000 C.ar    1  UNL1       -0.0575
     35 C          13.7629    1.9610    0.0000 C.ar    1  UNL1       -0.0201
     36 H           7.8230   -0.2502    0.0000 H       1  UNL1        0.0371
     37 H           7.8230    2.4402    0.0000 H       1  UNL1        0.0358
     38 H           8.2418   -0.1491    0.0000 H       1  UNL1        0.0339
     39 H           9.5446    0.5427    0.0000 H       1  UNL1        0.0737
     40 H           9.2167    2.2090    0.0000 H       1  UNL1        0.0307
     41 H           8.4283    2.4666    0.0000 H       1  UNL1        0.0307
     42 H           7.4040   -0.2150    0.0000 H       1  UNL1        0.1059
     43 H           8.4006   -0.8529    0.0000 H       1  UNL1        0.0234
     44 H           9.1826   -1.2496    0.0000 H       1  UNL1        0.0234
     45 H           9.5793   -0.4676    0.0000 H       1  UNL1        0.0234
     46 H           5.4641    1.9050    0.0000 H       1  UNL1        0.1029
     47 H           6.0010   -0.7850    0.0000 H       1  UNL1        0.0939
     48 H           6.0010   -3.0250    0.0000 H       1  UNL1        0.0671
     49 H           4.5981   -3.2150    0.0000 H       1  UNL1        0.0648
     50 H           3.7320   -2.0950    0.0000 H       1  UNL1        0.0647
     51 H           4.2690   -0.7850    0.0000 H       1  UNL1        0.0647
     52 H           3.8015   -0.4301    0.0000 H       1  UNL1        0.0584
     53 H           3.0044   -0.4301    0.0000 H       1  UNL1        0.0584
     54 H           6.8671   -3.5250    0.0000 H       1  UNL1        0.2101
     55 H           6.0010    4.2150    0.0000 H       1  UNL1        0.2954
     56 H           4.5981   -4.2150    0.0000 H       1  UNL1        0.2100
     57 H           3.4030   -3.5250    0.0000 H       1  UNL1        0.2100
     58 H           2.0000   -1.0950    0.0000 H       1  UNL1        0.2095
     59 H          11.9529    0.5581    0.0000 H       1  UNL1        0.0662
     60 H          11.9529    3.3640    0.0000 H       1  UNL1        0.0626
     61 H          13.5729    3.3640    0.0000 H       1  UNL1        0.0619
     62 H          14.3829    1.9610    0.0000 H       1  UNL1        0.0654
     63 H          14.3829    0.2290    0.0000 H       1  UNL1        0.2921
@<TRIPOS>BOND
     1     1    18    1
     2     1    21    1
     3    18     2    1
     4    22     2    1
     5    16     3    1
     6     3    28    1
     7     4    22    1
     8     4    27    1
     9    23     5    1
    10     5    54    1
    11     6    24    1
    12     6    55    1
    13    25     7    1
    14     7    56    1
    15    26     8    1
    16     8    57    1
    17     9    24    2
    18    10    28    2
    19    11    29    1
    20    11    58    1
    21    12    33    1
    22    12    63    1
    23    13    14    1
    24    13    15    1
    25    13    18    1
    26    13    36    1
    27    14    17    1
    28    14    19    1
    29    14    37    1
    30    15    16    1
    31    15    20    1
    32    15    38    1
    33    16    17    1
    34    16    39    1
    35    17    40    1
    36    17    41    1
    37    18    42    1
    38    19    21    2
    39    19    24    1
    40    20    43    1
    41    20    44    1
    42    20    45    1
    43    21    46    1
    44    22    23    1
    45    22    47    1
    46    23    25    1
    47    23    48    1
    48    25    26    1
    49    25    49    1
    50    26    27    1
    51    26    50    1
    52    27    29    1
    53    27    51    1
    54    28    30    1
    55    29    52    1
    56    29    53    1
    57    30    31   ar
    58    30    32   ar
    59    31    33   ar
    60    31    59    1
    61    32    34   ar
    62    32    60    1
    63    33    35   ar
    64    34    35   ar
    65    34    61    1
    66    35    62    1
