@<TRIPOS>MOLECULE
IMPHY014370
 53 56 0 0 0
SMALL
GASTEIGER

@<TRIPOS>ATOM
      1 O           4.6548    0.9329    0.0000 O.3     1  UNL1       -0.3845
      2 O           4.8027    2.4819    0.0000 O.3     1  UNL1       -0.3889
      3 O           8.1745   -0.0381    0.0000 O.2     1  UNL1       -0.2917
      4 O           2.3052   -2.2225    0.0000 O.3     1  UNL1       -0.4802
      5 O           3.8128   -3.0752    0.0000 O.2     1  UNL1       -0.2504
      6 C           5.6405    0.7641    0.0000 C.3     1  UNL1        0.1099
      7 C           4.7330    0.2528    0.0000 C.3     1  UNL1        0.0039
      8 C           6.5090    0.2685    0.0000 C.3     1  UNL1        0.0654
      9 C           4.7302   -0.7889    0.0000 C.3     1  UNL1       -0.0174
     10 C           6.5302   -0.7729    0.0000 C.3     1  UNL1       -0.0372
     11 C           6.4845    1.4498    0.0000 C.3     1  UNL1       -0.0305
     12 C           5.4865    1.7522    0.0000 C.3     1  UNL1        0.0859
     13 C           5.6349   -1.3052    0.0000 C.3     1  UNL1       -0.0476
     14 C           3.7975   -1.3432    0.0000 C.3     1  UNL1        0.0682
     15 C           7.1606    2.4189    0.0000 C.3     1  UNL1       -0.0097
     16 C           3.8034    0.8122    0.0000 C.3     1  UNL1       -0.0446
     17 C           6.1630    2.4886    0.0000 C.3     1  UNL1       -0.0172
     18 C           7.4380    0.6384    0.0000 C.2     1  UNL1        0.1679
     19 C           5.3861    1.3768    0.0000 C.3     1  UNL1       -0.0565
     20 C           2.8552   -0.8054    0.0000 C.3     1  UNL1       -0.0372
     21 C           2.8582    0.2796    0.0000 C.3     1  UNL1       -0.0515
     22 C           7.7280    1.5955    0.0000 C.2     1  UNL1       -0.0082
     23 C           4.3052   -2.2048    0.0000 C.3     1  UNL1       -0.0491
     24 C           3.3052   -2.2137    0.0000 C.2     1  UNL1        0.3110
     25 C           8.7161    1.7494    0.0000 C.2     1  UNL1       -0.0919
     26 H           4.7377   -1.6388    0.0000 H       1  UNL1        0.0317
     27 H           6.7512   -1.3522    0.0000 H       1  UNL1        0.0276
     28 H           7.1388   -0.6544    0.0000 H       1  UNL1        0.0276
     29 H           6.1103    1.9441    0.0000 H       1  UNL1        0.0281
     30 H           5.8988    1.2464    0.0000 H       1  UNL1        0.0281
     31 H           4.9293    1.4804    0.0000 H       1  UNL1        0.0622
     32 H           5.2399   -1.7831    0.0000 H       1  UNL1        0.0269
     33 H           6.0382   -1.7761    0.0000 H       1  UNL1        0.0269
     34 H           7.4071    3.2324    0.0000 H       1  UNL1        0.0351
     35 H           4.2093    1.2809    0.0000 H       1  UNL1        0.0272
     36 H           3.4111    1.2923    0.0000 H       1  UNL1        0.0272
     37 H           6.3428    3.0820    0.0000 H       1  UNL1        0.0297
     38 H           5.6246    2.7960    0.0000 H       1  UNL1        0.0297
     39 H           5.9222    1.0654    0.0000 H       1  UNL1        0.0236
     40 H           5.6976    1.9129    0.0000 H       1  UNL1        0.0236
     41 H           4.8500    1.6883    0.0000 H       1  UNL1        0.0236
     42 H           2.2446   -0.6977    0.0000 H       1  UNL1        0.0276
     43 H           2.6446   -1.3886    0.0000 H       1  UNL1        0.0276
     44 H           2.6507    0.8638    0.0000 H       1  UNL1        0.0266
     45 H           2.2470    0.1751    0.0000 H       1  UNL1        0.0266
     46 H           4.1779    1.3290    0.0000 H       1  UNL1        0.2103
     47 H           3.7710   -2.5196    0.0000 H       1  UNL1        0.0240
     48 H           4.6199   -2.7390    0.0000 H       1  UNL1        0.0240
     49 H           4.8393   -1.8901    0.0000 H       1  UNL1        0.0240
     50 H           4.9825    3.0752    0.0000 H       1  UNL1        0.2099
     51 H           9.1051    1.2666    0.0000 H       1  UNL1        0.0539
     52 H           8.9397    2.3277    0.0000 H       1  UNL1        0.0539
     53 H           2.0000   -2.7622    0.0000 H       1  UNL1        0.2951
@<TRIPOS>BOND
     1     6     1    1
     2     1    46    1
     3    12     2    1
     4     2    50    1
     5     3    18    2
     6     4    24    1
     7     4    53    1
     8     5    24    2
     9     6     7    1
    10     6     8    1
    11     6    12    1
    12     7     9    1
    13     7    16    1
    14     7    19    1
    15     8    10    1
    16     8    11    1
    17     8    18    1
    18     9    13    1
    19     9    14    1
    20     9    26    1
    21    10    13    1
    22    10    27    1
    23    10    28    1
    24    11    15    1
    25    11    29    1
    26    11    30    1
    27    12    17    1
    28    12    31    1
    29    13    32    1
    30    13    33    1
    31    14    20    1
    32    14    23    1
    33    14    24    1
    34    15    17    1
    35    15    22    1
    36    15    34    1
    37    16    21    1
    38    16    35    1
    39    16    36    1
    40    17    37    1
    41    17    38    1
    42    18    22    1
    43    19    39    1
    44    19    40    1
    45    19    41    1
    46    20    21    1
    47    20    42    1
    48    20    43    1
    49    21    44    1
    50    21    45    1
    51    22    25    2
    52    23    47    1
    53    23    48    1
    54    23    49    1
    55    25    51    1
    56    25    52    1
