@<TRIPOS>MOLECULE
IMPHY009182
 192 205 0 0 0
SMALL
GASTEIGER

@<TRIPOS>ATOM
      1 O          10.0432   -2.8006    0.0000 O.3     1  UNL1       -0.3281
      2 O          16.7107    4.0756    0.0000 O.3     1  UNL1       -0.3281
      3 O           8.0085   -4.5606    0.0000 O.3     1  UNL1       -0.4512
      4 O          17.5927    1.5340    0.0000 O.3     1  UNL1       -0.4512
      5 O           6.9739   -2.8122    0.0000 O.3     1  UNL1       -0.4500
      6 O          19.3629    2.5309    0.0000 O.3     1  UNL1       -0.4500
      7 O           7.9844   -1.0305    0.0000 O.3     1  UNL1       -0.4476
      8 O          19.3787    4.5792    0.0000 O.3     1  UNL1       -0.4476
      9 O          10.0326   -1.0305    0.0000 O.3     1  UNL1       -0.4274
     10 O          17.6048    5.6033    0.0000 O.3     1  UNL1       -0.4275
     11 O          15.6019    1.5681    0.0000 O.3     1  UNL1       -0.4584
     12 O           9.7497   -5.5265    0.0000 O.3     1  UNL1       -0.4584
     13 O          16.5724   -0.1462    0.0000 O.2     1  UNL1       -0.2449
     14 O           8.0520   -6.5260    0.0000 O.2     1  UNL1       -0.2449
     15 O           6.6929   -4.5213    0.0000 O.2     1  UNL1       -0.2449
     16 O          20.2462    4.0208    0.0000 O.2     1  UNL1       -0.2449
     17 O           6.4877   -1.9023    0.0000 O.2     1  UNL1       -0.2449
     18 O          18.5185    6.0825    0.0000 O.2     1  UNL1       -0.2449
     19 O          11.5293   -1.9023    0.0000 O.2     1  UNL1       -0.2447
     20 O          13.0326   -1.0420    0.0000 O.3     1  UNL1       -0.4476
     21 O          15.8728    5.5966    0.0000 O.2     1  UNL1       -0.2449
     22 O          16.6019    1.5681    0.0000 O.2     1  UNL1       -0.2449
     23 O           8.8836   -5.0265    0.0000 O.2     1  UNL1       -0.2449
     24 O          17.0987   -2.8001    0.0000 O.3     1  UNL1       -0.5028
     25 O           6.2692   -8.5611    0.0000 O.3     1  UNL1       -0.5028
     26 O          16.1050   -2.8001    0.0000 O.3     1  UNL1       -0.5028
     27 O           7.1298   -9.0580    0.0000 O.3     1  UNL1       -0.5028
     28 O          20.1711   -1.0420    0.0000 O.3     1  UNL1       -0.5032
     29 O          14.0568   -2.8159    0.0000 O.3     1  UNL1       -0.5009
     30 O           4.4875   -5.5024    0.0000 O.3     1  UNL1       -0.5032
     31 O          19.1470   -2.8159    0.0000 O.3     1  UNL1       -0.5009
     32 O           4.4875   -7.5507    0.0000 O.3     1  UNL1       -0.5009
     33 O           8.8958  -10.0958    0.0000 O.3     1  UNL1       -0.5009
     34 O          10.6696   -9.0716    0.0000 O.3     1  UNL1       -0.5032
     35 O          14.0393    0.6861    0.0000 O.3     1  UNL1       -0.5008
     36 O           3.0987   -4.8080    0.0000 O.3     1  UNL1       -0.5032
     37 O           3.6608   -1.3898    0.0000 O.3     1  UNL1       -0.5032
     38 O          23.6986    2.9808    0.0000 O.3     1  UNL1       -0.5032
     39 O          21.9319    0.0010    0.0000 O.3     1  UNL1       -0.5032
     40 O          11.0460    2.4297    0.0000 O.3     1  UNL1       -0.5032
     41 O           3.9777    0.6861    0.0000 O.3     1  UNL1       -0.5032
     42 O           6.9710    2.4297    0.0000 O.3     1  UNL1       -0.5032
     43 O          21.1262    8.5724    0.0000 O.3     1  UNL1       -0.5032
     44 O          22.8467    5.5658    0.0000 O.3     1  UNL1       -0.5032
     45 O          13.0460    2.4220    0.0000 O.3     1  UNL1       -0.5008
     46 O           2.3930   -2.9366    0.0000 O.3     1  UNL1       -0.5009
     47 O          23.6754    0.9809    0.0000 O.3     1  UNL1       -0.5009
     48 O          14.9933    9.0933    0.0000 O.3     1  UNL1       -0.5032
     49 O          18.4574    9.1066    0.0000 O.3     1  UNL1       -0.5032
     50 O           4.9710    2.4220    0.0000 O.3     1  UNL1       -0.5009
     51 O          22.8544    7.5658    0.0000 O.3     1  UNL1       -0.5009
     52 O          16.7215   10.0999    0.0000 O.3     1  UNL1       -0.5009
     53 C           8.5085   -3.6946    0.0000 C.3     1  UNL1        0.1730
     54 C           7.9738   -2.8006    0.0000 C.3     1  UNL1        0.1851
     55 C          17.5927    2.5340    0.0000 C.3     1  UNL1        0.1730
     56 C          18.5028    3.0409    0.0000 C.3     1  UNL1        0.1851
     57 C           8.4877   -1.8946    0.0000 C.3     1  UNL1        0.2053
     58 C           9.5085   -3.6946    0.0000 C.3     1  UNL1        0.1371
     59 C          16.7267    3.0340    0.0000 C.3     1  UNL1        0.1371
     60 C          18.5108    4.0825    0.0000 C.3     1  UNL1        0.2053
     61 C           9.5293   -1.8946    0.0000 C.3     1  UNL1        0.2465
     62 C          17.6087    4.6033    0.0000 C.3     1  UNL1        0.2465
     63 C          10.0085   -4.5606    0.0000 C.3     1  UNL1        0.1226
     64 C          15.8607    2.5340    0.0000 C.3     1  UNL1        0.1226
     65 C          17.1019    0.7021    0.0000 C.2     1  UNL1        0.3405
     66 C           8.0176   -5.5265    0.0000 C.2     1  UNL1        0.3405
     67 C           6.3400   -3.5857    0.0000 C.2     1  UNL1        0.3399
     68 C          20.2347    3.0209    0.0000 C.2     1  UNL1        0.3399
     69 C           6.9844   -1.0343    0.0000 C.2     1  UNL1        0.3400
     70 C          19.3826    5.5792    0.0000 C.2     1  UNL1        0.3400
     71 C          11.0326   -1.0343    0.0000 C.2     1  UNL1        0.3453
     72 C          17.6019   -0.1639    0.0000 C.ar    1  UNL1        0.0740
     73 C           7.1516   -6.0265    0.0000 C.ar    1  UNL1        0.0740
     74 C          16.7369    6.1000    0.0000 C.2     1  UNL1        0.3417
     75 C          16.1019    0.7021    0.0000 C.2     1  UNL1        0.3401
     76 C           8.8836   -6.0265    0.0000 C.2     1  UNL1        0.3401
     77 C          17.1019   -1.0300    0.0000 C.ar    1  UNL1        0.0458
     78 C           7.1516   -7.0265    0.0000 C.ar    1  UNL1        0.0458
     79 C          15.6019   -0.1639    0.0000 C.ar    1  UNL1        0.0740
     80 C          16.1019   -1.0300    0.0000 C.ar    1  UNL1        0.0458
     81 C           5.3532   -3.4234    0.0000 C.ar    1  UNL1        0.0661
     82 C          21.0949    2.5109    0.0000 C.ar    1  UNL1        0.0661
     83 C           8.8836   -7.0265    0.0000 C.ar    1  UNL1        0.0740
     84 C           8.0176   -7.5265    0.0000 C.ar    1  UNL1        0.0458
     85 C           6.4810   -0.1703    0.0000 C.ar    1  UNL1        0.0661
     86 C          11.5360   -0.1703    0.0000 C.ar    1  UNL1        0.1085
     87 C          20.2505    6.0758    0.0000 C.ar    1  UNL1        0.0661
     88 C          16.7330    7.1000    0.0000 C.ar    1  UNL1        0.0662
     89 C          18.6434   -0.1479    0.0000 C.ar    1  UNL1       -0.0017
     90 C           6.2577   -5.4919    0.0000 C.ar    1  UNL1       -0.0017
     91 C          17.6087   -1.9400    0.0000 C.ar    1  UNL1        0.1708
     92 C          14.5604   -0.1479    0.0000 C.ar    1  UNL1       -0.0009
     93 C           6.2577   -7.5612    0.0000 C.ar    1  UNL1        0.1708
     94 C          15.5950   -1.9400    0.0000 C.ar    1  UNL1        0.1708
     95 C          12.5360   -0.1741    0.0000 C.ar    1  UNL1        0.1876
     96 C          14.0326   -1.0459    0.0000 C.ar    1  UNL1        0.1743
     97 C           8.0016   -8.5680    0.0000 C.ar    1  UNL1        0.1708
     98 C           9.7937   -7.5334    0.0000 C.ar    1  UNL1       -0.0017
     99 C           5.0004   -2.4876    0.0000 C.ar    1  UNL1       -0.0023
    100 C           4.7194   -4.1968    0.0000 C.ar    1  UNL1       -0.0023
    101 C          19.1711   -1.0459    0.0000 C.ar    1  UNL1        0.1628
    102 C          21.0833    1.5110    0.0000 C.ar    1  UNL1       -0.0023
    103 C          21.9666    3.0008    0.0000 C.ar    1  UNL1       -0.0023
    104 C          14.5534   -1.9480    0.0000 C.ar    1  UNL1        0.2021
    105 C           5.3516   -6.0057    0.0000 C.ar    1  UNL1        0.1628
    106 C          18.6503   -1.9480    0.0000 C.ar    1  UNL1        0.2012
    107 C          11.0393    0.6977    0.0000 C.ar    1  UNL1        0.0013
    108 C           6.9777    0.6977    0.0000 C.ar    1  UNL1       -0.0023
    109 C           5.4810   -0.1741    0.0000 C.ar    1  UNL1       -0.0023
    110 C          21.1146    5.5725    0.0000 C.ar    1  UNL1       -0.0023
    111 C          20.2544    7.0758    0.0000 C.ar    1  UNL1       -0.0023
    112 C           5.3516   -7.0474    0.0000 C.ar    1  UNL1        0.2012
    113 C          17.5971    7.6033    0.0000 C.ar    1  UNL1       -0.0023
    114 C          15.8651    7.5966    0.0000 C.ar    1  UNL1       -0.0023
    115 C           8.8996   -9.0958    0.0000 C.ar    1  UNL1        0.2012
    116 C           9.8017   -8.5750    0.0000 C.ar    1  UNL1        0.1628
    117 C          13.0393    0.6900    0.0000 C.ar    1  UNL1        0.2060
    118 C           3.7326   -4.0345    0.0000 C.ar    1  UNL1        0.1628
    119 C           4.0137   -2.3254    0.0000 C.ar    1  UNL1        0.1628
    120 C          22.8268    2.4909    0.0000 C.ar    1  UNL1        0.1628
    121 C          21.9435    1.0010    0.0000 C.ar    1  UNL1        0.1628
    122 C          11.5427    1.5618    0.0000 C.ar    1  UNL1        0.1630
    123 C           4.9777    0.6900    0.0000 C.ar    1  UNL1        0.1628
    124 C           6.4744    1.5618    0.0000 C.ar    1  UNL1        0.1628
    125 C          21.1223    7.5724    0.0000 C.ar    1  UNL1        0.1628
    126 C          21.9826    6.0691    0.0000 C.ar    1  UNL1        0.1628
    127 C          12.5426    1.5579    0.0000 C.ar    1  UNL1        0.2044
    128 C           3.3798   -3.0988    0.0000 C.ar    1  UNL1        0.2006
    129 C          22.8152    1.4909    0.0000 C.ar    1  UNL1        0.2006
    130 C          15.8612    8.5966    0.0000 C.ar    1  UNL1        0.1628
    131 C          17.5933    8.6033    0.0000 C.ar    1  UNL1        0.1628
    132 C           5.4744    1.5579    0.0000 C.ar    1  UNL1        0.2006
    133 C          21.9864    7.0691    0.0000 C.ar    1  UNL1        0.2006
    134 C          16.7253    9.0999    0.0000 C.ar    1  UNL1        0.2006
    135 H           7.6585   -3.7011    0.0000 H       1  UNL1        0.0801
    136 H           7.6711   -3.3417    0.0000 H       1  UNL1        0.0813
    137 H          18.3256    2.1034    0.0000 H       1  UNL1        0.0801
    138 H          18.4944    2.4210    0.0000 H       1  UNL1        0.0813
    139 H           7.8677   -1.8982    0.0000 H       1  UNL1        0.0837
    140 H          10.3585   -3.7011    0.0000 H       1  UNL1        0.0670
    141 H          15.9873    3.4534    0.0000 H       1  UNL1        0.0670
    142 H          18.5120    4.7025    0.0000 H       1  UNL1        0.0837
    143 H           9.2204   -1.3570    0.0000 H       1  UNL1        0.1098
    144 H          18.1450    4.9143    0.0000 H       1  UNL1        0.1098
    145 H          10.5454   -4.8706    0.0000 H       1  UNL1        0.0725
    146 H          10.4469   -4.1222    0.0000 H       1  UNL1        0.0725
    147 H          15.7002    3.1329    0.0000 H       1  UNL1        0.0725
    148 H          15.2407    2.5340    0.0000 H       1  UNL1        0.0725
    149 H          18.9472    0.3926    0.0000 H       1  UNL1        0.0664
    150 H           6.2648   -4.8719    0.0000 H       1  UNL1        0.0664
    151 H          14.2566    0.3926    0.0000 H       1  UNL1        0.0664
    152 H          10.3270   -7.2172    0.0000 H       1  UNL1        0.0664
    153 H           5.3934   -2.0081    0.0000 H       1  UNL1        0.0663
    154 H           4.9382   -4.7769    0.0000 H       1  UNL1        0.0663
    155 H          20.5428    1.2072    0.0000 H       1  UNL1        0.0663
    156 H          21.9738    3.6208    0.0000 H       1  UNL1        0.0663
    157 H          10.4193    0.7001    0.0000 H       1  UNL1        0.0665
    158 H           7.5977    0.7001    0.0000 H       1  UNL1        0.0663
    159 H           5.1731   -0.7122    0.0000 H       1  UNL1        0.0663
    160 H          21.1122    4.9525    0.0000 H       1  UNL1        0.0663
    161 H          19.7186    7.3879    0.0000 H       1  UNL1        0.0663
    162 H          18.1353    7.2954    0.0000 H       1  UNL1        0.0663
    163 H          15.3294    7.2845    0.0000 H       1  UNL1        0.0663
    164 H          17.4025   -3.3406    0.0000 H       1  UNL1        0.2923
    165 H           5.7359   -8.8773    0.0000 H       1  UNL1        0.2923
    166 H          15.8012   -3.3406    0.0000 H       1  UNL1        0.2923
    167 H           7.1226   -9.6780    0.0000 H       1  UNL1        0.2923
    168 H          20.4791   -0.5039    0.0000 H       1  UNL1        0.2923
    169 H          13.4368   -2.8183    0.0000 H       1  UNL1        0.2924
    170 H           3.9494   -5.8103    0.0000 H       1  UNL1        0.2923
    171 H          19.7670   -2.8183    0.0000 H       1  UNL1        0.2924
    172 H           3.9494   -7.2428    0.0000 H       1  UNL1        0.2924
    173 H           9.4315  -10.4079    0.0000 H       1  UNL1        0.2924
    174 H          11.2054   -8.7596    0.0000 H       1  UNL1        0.2923
    175 H          14.3514    1.2219    0.0000 H       1  UNL1        0.2924
    176 H           2.4870   -4.7074    0.0000 H       1  UNL1        0.2923
    177 H           4.0538   -0.9103    0.0000 H       1  UNL1        0.2923
    178 H          24.2319    2.6646    0.0000 H       1  UNL1        0.2923
    179 H          22.4652   -0.3151    0.0000 H       1  UNL1        0.2923
    180 H          10.4260    2.4321    0.0000 H       1  UNL1        0.2923
    181 H           3.6698    0.1480    0.0000 H       1  UNL1        0.2923
    182 H           6.6589    2.9655    0.0000 H       1  UNL1        0.2923
    183 H          21.6643    8.8804    0.0000 H       1  UNL1        0.2923
    184 H          23.3848    5.8737    0.0000 H       1  UNL1        0.2923
    185 H          12.7381    2.9602    0.0000 H       1  UNL1        0.2924
    186 H           2.0000   -3.4161    0.0000 H       1  UNL1        0.2924
    187 H          24.2159    1.2847    0.0000 H       1  UNL1        0.2924
    188 H          14.9909    9.7133    0.0000 H       1  UNL1        0.2923
    189 H          18.4550    9.7266    0.0000 H       1  UNL1        0.2923
    190 H           5.2790    2.9602    0.0000 H       1  UNL1        0.2924
    191 H          22.8568    8.1858    0.0000 H       1  UNL1        0.2924
    192 H          16.1834   10.4079    0.0000 H       1  UNL1        0.2924
@<TRIPOS>BOND
     1     1    58    1
     2     1    61    1
     3     2    59    1
     4     2    62    1
     5     3    53    1
     6     3    66    1
     7     4    55    1
     8     4    65    1
     9    54     5    1
    10     5    67    1
    11    56     6    1
    12     6    68    1
    13    57     7    1
    14     7    69    1
    15    60     8    1
    16     8    70    1
    17    61     9    1
    18     9    71    1
    19    62    10    1
    20    10    74    1
    21    11    64    1
    22    11    75    1
    23    12    63    1
    24    12    76    1
    25    13    65    2
    26    14    66    2
    27    15    67    2
    28    16    68    2
    29    17    69    2
    30    18    70    2
    31    19    71    2
    32    20    95    1
    33    20    96    1
    34    21    74    2
    35    22    75    2
    36    23    76    2
    37    24    91    1
    38    24   164    1
    39    25    93    1
    40    25   165    1
    41    26    94    1
    42    26   166    1
    43    27    97    1
    44    27   167    1
    45    28   101    1
    46    28   168    1
    47    29   104    1
    48    29   169    1
    49    30   105    1
    50    30   170    1
    51    31   106    1
    52    31   171    1
    53    32   112    1
    54    32   172    1
    55    33   115    1
    56    33   173    1
    57    34   116    1
    58    34   174    1
    59    35   117    1
    60    35   175    1
    61    36   118    1
    62    36   176    1
    63    37   119    1
    64    37   177    1
    65    38   120    1
    66    38   178    1
    67    39   121    1
    68    39   179    1
    69    40   122    1
    70    40   180    1
    71    41   123    1
    72    41   181    1
    73    42   124    1
    74    42   182    1
    75    43   125    1
    76    43   183    1
    77    44   126    1
    78    44   184    1
    79    45   127    1
    80    45   185    1
    81    46   128    1
    82    46   186    1
    83    47   129    1
    84    47   187    1
    85    48   130    1
    86    48   188    1
    87    49   131    1
    88    49   189    1
    89    50   132    1
    90    50   190    1
    91    51   133    1
    92    51   191    1
    93    52   134    1
    94    52   192    1
    95    53    54    1
    96    53    58    1
    97    53   135    1
    98    54    57    1
    99    54   136    1
   100    55    56    1
   101    55    59    1
   102    55   137    1
   103    56    60    1
   104    56   138    1
   105    57    61    1
   106    57   139    1
   107    58    63    1
   108    58   140    1
   109    59    64    1
   110    59   141    1
   111    60    62    1
   112    60   142    1
   113    61   143    1
   114    62   144    1
   115    63   145    1
   116    63   146    1
   117    64   147    1
   118    64   148    1
   119    65    72    1
   120    66    73    1
   121    67    81    1
   122    68    82    1
   123    69    85    1
   124    70    87    1
   125    71    86    1
   126    72    77   ar
   127    72    89   ar
   128    73    78   ar
   129    73    90   ar
   130    74    88    1
   131    75    79    1
   132    76    83    1
   133    77    80    1
   134    77    91   ar
   135    78    84    1
   136    78    93   ar
   137    79    80   ar
   138    79    92   ar
   139    80    94   ar
   140    81    99   ar
   141    81   100   ar
   142    82   102   ar
   143    82   103   ar
   144    83    84   ar
   145    83    98   ar
   146    84    97   ar
   147    85   108   ar
   148    85   109   ar
   149    86    95   ar
   150    86   107   ar
   151    87   110   ar
   152    87   111   ar
   153    88   113   ar
   154    88   114   ar
   155    89   101   ar
   156    89   149    1
   157    90   105   ar
   158    90   150    1
   159    91   106   ar
   160    92    96   ar
   161    92   151    1
   162    93   112   ar
   163    94   104   ar
   164    95   117   ar
   165    96   104   ar
   166    97   115   ar
   167    98   116   ar
   168    98   152    1
   169    99   119   ar
   170    99   153    1
   171   100   118   ar
   172   100   154    1
   173   101   106   ar
   174   102   121   ar
   175   102   155    1
   176   103   120   ar
   177   103   156    1
   178   105   112   ar
   179   107   122   ar
   180   107   157    1
   181   108   124   ar
   182   108   158    1
   183   109   123   ar
   184   109   159    1
   185   110   126   ar
   186   110   160    1
   187   111   125   ar
   188   111   161    1
   189   113   131   ar
   190   113   162    1
   191   114   130   ar
   192   114   163    1
   193   115   116   ar
   194   117   127   ar
   195   118   128   ar
   196   119   128   ar
   197   120   129   ar
   198   121   129   ar
   199   122   127   ar
   200   123   132   ar
   201   124   132   ar
   202   125   133   ar
   203   126   133   ar
   204   130   134   ar
   205   131   134   ar
