@<TRIPOS>MOLECULE
IMPHY012057
 19 18 0 0 0
SMALL
GASTEIGER

@<TRIPOS>ATOM
      1 O           4.5981    0.5000    0.0000 O.3     1  UNL1       -0.3524
      2 O           2.8660   -0.5000    0.0000 O.3     1  UNL1       -0.3524
      3 C           3.7320    0.0000    0.0000 C.3     1  UNL1        0.1637
      4 C           3.2320    0.8660    0.0000 C.3     1  UNL1       -0.0108
      5 C           4.2320   -0.8660    0.0000 C.3     1  UNL1       -0.0108
      6 C           5.4641    0.0000    0.0000 C.3     1  UNL1        0.0397
      7 C           2.0000   -0.0000    0.0000 C.3     1  UNL1        0.0397
      8 H           3.7690    1.1760    0.0000 H       1  UNL1        0.0281
      9 H           2.9220    1.4030    0.0000 H       1  UNL1        0.0281
     10 H           2.6951    0.5560    0.0000 H       1  UNL1        0.0281
     11 H           3.6951   -1.1760    0.0000 H       1  UNL1        0.0281
     12 H           4.5420   -1.4030    0.0000 H       1  UNL1        0.0281
     13 H           4.7690   -0.5560    0.0000 H       1  UNL1        0.0281
     14 H           5.1541   -0.5369    0.0000 H       1  UNL1        0.0525
     15 H           6.0010   -0.3100    0.0000 H       1  UNL1        0.0525
     16 H           5.7741    0.5369    0.0000 H       1  UNL1        0.0525
     17 H           2.3100    0.5369    0.0000 H       1  UNL1        0.0525
     18 H           1.4631    0.3100    0.0000 H       1  UNL1        0.0525
     19 H           1.6900   -0.5369    0.0000 H       1  UNL1        0.0525
@<TRIPOS>BOND
     1     1     3    1
     2     1     6    1
     3     2     3    1
     4     2     7    1
     5     3     4    1
     6     3     5    1
     7     4     8    1
     8     4     9    1
     9     4    10    1
    10     5    11    1
    11     5    12    1
    12     5    13    1
    13     6    14    1
    14     6    15    1
    15     6    16    1
    16     7    17    1
    17     7    18    1
    18     7    19    1
