@<TRIPOS>MOLECULE
IMPHY009970
 81 86 0 0 0
SMALL
GASTEIGER

@<TRIPOS>ATOM
      1 O           4.7742    3.4907    0.0000 O.3     1  UNL1       -0.3477
      2 O           5.1742    5.0907    0.0000 O.3     1  UNL1       -0.3640
      3 O           3.9118   -4.9242    0.0000 O.3     1  UNL1       -0.3907
      4 O           2.5345   -2.8220    0.0000 O.3     1  UNL1       -0.4802
      5 O           2.7675   -4.0863    0.0000 O.2     1  UNL1       -0.2503
      6 C           5.1742    2.0907    0.0000 C.3     1  UNL1        0.0015
      7 C           4.2922    0.5214    0.0000 C.3     1  UNL1       -0.0193
      8 C           5.1902    1.0492    0.0000 C.3     1  UNL1       -0.0234
      9 C           4.3082    2.5907    0.0000 C.3     1  UNL1       -0.0230
     10 C           4.2838   -0.5635    0.0000 C.3     1  UNL1       -0.0051
     11 C           4.3082    3.5907    0.0000 C.3     1  UNL1        0.0223
     12 C           3.3901    1.0422    0.0000 C.3     1  UNL1       -0.0463
     13 C           3.3982    2.0838    0.0000 C.3     1  UNL1       -0.0484
     14 C           6.0402    2.5907    0.0000 C.3     1  UNL1       -0.0398
     15 C           5.1742    4.0907    0.0000 C.3     1  UNL1        0.1726
     16 C           4.7742    2.6907    0.0000 C.3     1  UNL1        0.0571
     17 C           5.2235   -1.1060    0.0000 C.2     1  UNL1       -0.0625
     18 C           6.1422    0.5286    0.0000 C.3     1  UNL1       -0.0305
     19 C           5.2409   -2.2361    0.0000 C.3     1  UNL1        0.0016
     20 C           6.0402    3.5907    0.0000 C.3     1  UNL1        0.0023
     21 C           3.2965   -1.1135    0.0000 C.3     1  UNL1       -0.0423
     22 C           4.2665   -2.8087    0.0000 C.3     1  UNL1        0.1000
     23 C           3.3088    0.3402    0.0000 C.3     1  UNL1       -0.0585
     24 C           3.2878   -2.2436    0.0000 C.3     1  UNL1       -0.0335
     25 C           6.1589   -0.5563    0.0000 C.2     1  UNL1       -0.0836
     26 C           3.2990   -0.3899    0.0000 C.3     1  UNL1       -0.0553
     27 C           6.2737   -2.8009    0.0000 C.3     1  UNL1       -0.0336
     28 C           3.8082    4.4567    0.0000 C.3     1  UNL1       -0.0546
     29 C           3.3082    3.5907    0.0000 C.3     1  UNL1       -0.0546
     30 C           4.2575   -3.9858    0.0000 C.3     1  UNL1        0.0718
     31 C           6.2919   -3.9780    0.0000 C.3     1  UNL1       -0.0384
     32 C           5.2770   -4.5744    0.0000 C.3     1  UNL1       -0.0229
     33 C           3.4044   -3.3153    0.0000 C.2     1  UNL1        0.3140
     34 C           7.1300   -2.2843    0.0000 C.3     1  UNL1       -0.0616
     35 C           7.1636   -4.4680    0.0000 C.3     1  UNL1       -0.0621
     36 H           5.9180    1.4883    0.0000 H       1  UNL1        0.0315
     37 H           3.5720    3.0157    0.0000 H       1  UNL1        0.0314
     38 H           2.7801    1.1530    0.0000 H       1  UNL1        0.0271
     39 H           3.1766    0.4602    0.0000 H       1  UNL1        0.0271
     40 H           3.1936    2.6691    0.0000 H       1  UNL1        0.0268
     41 H           2.7865    1.9825    0.0000 H       1  UNL1        0.0268
     42 H           6.2523    2.0081    0.0000 H       1  UNL1        0.0273
     43 H           6.6508    2.6984    0.0000 H       1  UNL1        0.0273
     44 H           4.1872    2.8902    0.0000 H       1  UNL1        0.0566
     45 H           5.3676    2.8704    0.0000 H       1  UNL1        0.0566
     46 H           6.7546    0.4319    0.0000 H       1  UNL1        0.0310
     47 H           6.3422    1.1154    0.0000 H       1  UNL1        0.0310
     48 H           5.9687   -1.7970    0.0000 H       1  UNL1        0.0360
     49 H           6.6508    3.4830    0.0000 H       1  UNL1        0.0317
     50 H           6.2523    4.1733    0.0000 H       1  UNL1        0.0317
     51 H           3.0919   -0.5282    0.0000 H       1  UNL1        0.0274
     52 H           2.6848   -1.2148    0.0000 H       1  UNL1        0.0274
     53 H           3.1964    0.9500    0.0000 H       1  UNL1        0.0235
     54 H           2.6990    0.2279    0.0000 H       1  UNL1        0.0235
     55 H           3.4211   -0.2695    0.0000 H       1  UNL1        0.0235
     56 H           2.6778   -2.1328    0.0000 H       1  UNL1        0.0277
     57 H           3.0742   -2.8256    0.0000 H       1  UNL1        0.0277
     58 H           6.6994   -0.8601    0.0000 H       1  UNL1        0.0572
     59 H           3.4067    0.2207    0.0000 H       1  UNL1        0.0238
     60 H           2.6884   -0.2822    0.0000 H       1  UNL1        0.0238
     61 H           3.1914   -1.0005    0.0000 H       1  UNL1        0.0238
     62 H           6.8160   -3.1016    0.0000 H       1  UNL1        0.0307
     63 H           4.3451    4.7667    0.0000 H       1  UNL1        0.0237
     64 H           3.4982    4.9936    0.0000 H       1  UNL1        0.0237
     65 H           3.2712    4.1467    0.0000 H       1  UNL1        0.0237
     66 H           3.3082    4.2107    0.0000 H       1  UNL1        0.0237
     67 H           2.6881    3.5907    0.0000 H       1  UNL1        0.0237
     68 H           3.3082    2.9707    0.0000 H       1  UNL1        0.0237
     69 H           3.6475   -3.8746    0.0000 H       1  UNL1        0.0604
     70 H           6.8246   -3.6608    0.0000 H       1  UNL1        0.0302
     71 H           4.8796   -5.0504    0.0000 H       1  UNL1        0.0293
     72 H           5.6779   -5.0474    0.0000 H       1  UNL1        0.0293
     73 H           5.7111    5.4007    0.0000 H       1  UNL1        0.2128
     74 H           7.4502   -2.8152    0.0000 H       1  UNL1        0.0233
     75 H           7.6608   -1.9640    0.0000 H       1  UNL1        0.0233
     76 H           6.8097   -1.7535    0.0000 H       1  UNL1        0.0233
     77 H           6.8599   -5.0084    0.0000 H       1  UNL1        0.0233
     78 H           7.7041   -4.7717    0.0000 H       1  UNL1        0.0233
     79 H           7.4674   -3.9275    0.0000 H       1  UNL1        0.0233
     80 H           4.3085   -5.4007    0.0000 H       1  UNL1        0.2098
     81 H           2.0000   -3.1362    0.0000 H       1  UNL1        0.2951
@<TRIPOS>BOND
     1     1    15    1
     2     1    16    1
     3    15     2    1
     4     2    73    1
     5    30     3    1
     6     3    80    1
     7     4    33    1
     8     4    81    1
     9     5    33    2
    10     6     8    1
    11     6     9    1
    12     6    14    1
    13     6    16    1
    14     7     8    1
    15     7    10    1
    16     7    12    1
    17     7    23    1
    18     8    18    1
    19     8    36    1
    20     9    11    1
    21     9    13    1
    22     9    37    1
    23    10    17    1
    24    10    21    1
    25    10    26    1
    26    11    15    1
    27    11    28    1
    28    11    29    1
    29    12    13    1
    30    12    38    1
    31    12    39    1
    32    13    40    1
    33    13    41    1
    34    14    20    1
    35    14    42    1
    36    14    43    1
    37    15    20    1
    38    16    44    1
    39    16    45    1
    40    17    19    1
    41    17    25    2
    42    18    25    1
    43    18    46    1
    44    18    47    1
    45    19    22    1
    46    19    27    1
    47    19    48    1
    48    20    49    1
    49    20    50    1
    50    21    24    1
    51    21    51    1
    52    21    52    1
    53    22    24    1
    54    22    30    1
    55    22    33    1
    56    23    53    1
    57    23    54    1
    58    23    55    1
    59    24    56    1
    60    24    57    1
    61    25    58    1
    62    26    59    1
    63    26    60    1
    64    26    61    1
    65    27    31    1
    66    27    34    1
    67    27    62    1
    68    28    63    1
    69    28    64    1
    70    28    65    1
    71    29    66    1
    72    29    67    1
    73    29    68    1
    74    30    32    1
    75    30    69    1
    76    31    32    1
    77    31    35    1
    78    31    70    1
    79    32    71    1
    80    32    72    1
    81    34    74    1
    82    34    75    1
    83    34    76    1
    84    35    77    1
    85    35    78    1
    86    35    79    1
