@<TRIPOS>MOLECULE
IMPHY013156
 49 52 0 0 0
SMALL
GASTEIGER

@<TRIPOS>ATOM
      1 O           8.6793   -0.4324    0.0000 O.3     1  UNL1       -0.4797
      2 O           6.8671   -1.6276    0.0000 O.3     1  UNL1       -0.4914
      3 O          12.4300   -1.2307    0.0000 O.3     1  UNL1       -0.4525
      4 O          13.2347    0.1632    0.0000 O.3     1  UNL1       -0.4489
      5 O          12.2629    2.1044    0.0000 O.3     1  UNL1       -0.4913
      6 O           2.5369    0.8724    0.0000 O.3     1  UNL1       -0.3910
      7 C           8.6793    1.1771    0.0000 C.3     1  UNL1        0.0262
      8 C           9.2629    0.3724    0.0000 C.3     1  UNL1        0.1322
      9 C           7.7331    0.8724    0.0000 C.ar    1  UNL1        0.0052
     10 C           7.7331   -0.1276    0.0000 C.ar    1  UNL1        0.1664
     11 C          10.2629    0.3724    0.0000 C.ar    1  UNL1        0.0004
     12 C           8.9900    2.1276    0.0000 C.3     1  UNL1       -0.0546
     13 C           6.8671    1.3724    0.0000 C.ar    1  UNL1       -0.0473
     14 C           6.8671   -0.6276    0.0000 C.ar    1  UNL1        0.1624
     15 C          10.7629   -0.4937    0.0000 C.ar    1  UNL1       -0.0092
     16 C          10.7629    1.2384    0.0000 C.ar    1  UNL1       -0.0094
     17 C           6.0010    0.8724    0.0000 C.ar    1  UNL1       -0.0213
     18 C           6.0010   -0.1276    0.0000 C.ar    1  UNL1       -0.0091
     19 C          11.7629   -0.4937    0.0000 C.ar    1  UNL1        0.1703
     20 C          11.7629    1.2384    0.0000 C.ar    1  UNL1        0.1657
     21 C          12.2629    0.3724    0.0000 C.ar    1  UNL1        0.2075
     22 C           5.1350    1.3724    0.0000 C.2     1  UNL1       -0.0563
     23 C          13.3378   -0.8256    0.0000 C.3     1  UNL1        0.2334
     24 C           6.0010   -2.1276    0.0000 C.3     1  UNL1        0.0790
     25 C           4.2690    0.8724    0.0000 C.2     1  UNL1       -0.0584
     26 C          13.2629    2.1044    0.0000 C.3     1  UNL1        0.0790
     27 C           3.4030    1.3724    0.0000 C.3     1  UNL1        0.0627
     28 H           8.2418    1.6165    0.0000 H       1  UNL1        0.0387
     29 H           9.5446   -0.1799    0.0000 H       1  UNL1        0.0790
     30 H           9.5793    1.9350    0.0000 H       1  UNL1        0.0237
     31 H           9.1826    2.7170    0.0000 H       1  UNL1        0.0237
     32 H           8.4006    2.3202    0.0000 H       1  UNL1        0.0237
     33 H           6.8671    1.9924    0.0000 H       1  UNL1        0.0627
     34 H          10.4529   -1.0306    0.0000 H       1  UNL1        0.0659
     35 H          10.4529    1.7753    0.0000 H       1  UNL1        0.0659
     36 H           5.4641   -0.4376    0.0000 H       1  UNL1        0.0661
     37 H           5.1350    1.9924    0.0000 H       1  UNL1        0.0621
     38 H          13.5295   -1.4151    0.0000 H       1  UNL1        0.1166
     39 H          13.9443   -0.6968    0.0000 H       1  UNL1        0.1166
     40 H           5.6910   -1.5907    0.0000 H       1  UNL1        0.0660
     41 H           5.4641   -2.4376    0.0000 H       1  UNL1        0.0660
     42 H           6.3110   -2.6646    0.0000 H       1  UNL1        0.0660
     43 H           4.2690    0.2524    0.0000 H       1  UNL1        0.0595
     44 H          13.2629    1.4844    0.0000 H       1  UNL1        0.0660
     45 H          13.8829    2.1044    0.0000 H       1  UNL1        0.0660
     46 H          13.2629    2.7244    0.0000 H       1  UNL1        0.0660
     47 H           3.8015    1.8473    0.0000 H       1  UNL1        0.0601
     48 H           3.0044    1.8473    0.0000 H       1  UNL1        0.0601
     49 H           2.0000    1.1824    0.0000 H       1  UNL1        0.2098
@<TRIPOS>BOND
     1     1     8    1
     2     1    10    1
     3     2    14    1
     4     2    24    1
     5     3    19    1
     6     3    23    1
     7     4    21    1
     8     4    23    1
     9     5    20    1
    10     5    26    1
    11     6    27    1
    12     6    49    1
    13     7     8    1
    14     7     9    1
    15     7    12    1
    16     7    28    1
    17     8    11    1
    18     8    29    1
    19     9    10   ar
    20     9    13   ar
    21    10    14   ar
    22    11    15   ar
    23    11    16   ar
    24    12    30    1
    25    12    31    1
    26    12    32    1
    27    13    17   ar
    28    13    33    1
    29    14    18   ar
    30    15    19   ar
    31    15    34    1
    32    16    20   ar
    33    16    35    1
    34    17    18   ar
    35    17    22    1
    36    18    36    1
    37    19    21   ar
    38    20    21   ar
    39    22    25    2
    40    22    37    1
    41    23    38    1
    42    23    39    1
    43    24    40    1
    44    24    41    1
    45    24    42    1
    46    25    27    1
    47    25    43    1
    48    26    44    1
    49    26    45    1
    50    26    46    1
    51    27    47    1
    52    27    48    1
