@<TRIPOS>MOLECULE
IMPHY003846
 52 54 0 0 0
SMALL
GASTEIGER

@<TRIPOS>ATOM
      1 O           8.0321   -1.9101    0.0000 O.3     1  UNL1       -0.5062
      2 N           4.5274   -0.9976    0.0000 N.ar    1  UNL1       -0.3538
      3 C           5.3364   -1.5854    0.0000 C.ar    1  UNL1        0.0545
      4 C           5.0274   -2.5364    0.0000 C.ar    1  UNL1        0.0081
      5 C           6.3518   -1.3531    0.0000 C.ar    1  UNL1        0.0219
      6 C           4.0274   -2.5364    0.0000 C.ar    1  UNL1        0.0074
      7 C           3.7183   -1.5854    0.0000 C.ar    1  UNL1        0.0475
      8 C           6.6498   -0.3985    0.0000 C.3     1  UNL1       -0.0038
      9 C           7.0547   -2.1218    0.0000 C.ar    1  UNL1        0.1252
     10 C           5.7123   -3.3211    0.0000 C.ar    1  UNL1       -0.0456
     11 C           6.7328   -3.1124    0.0000 C.ar    1  UNL1       -0.0080
     12 C           7.6255   -0.1793    0.0000 C.2     1  UNL1       -0.0805
     13 C           3.3424   -3.3211    0.0000 C.ar    1  UNL1       -0.0520
     14 C           7.9235    0.7752    0.0000 C.2     1  UNL1       -0.0759
     15 C           2.7029   -1.3531    0.0000 C.ar    1  UNL1       -0.0378
     16 C           8.8991    0.9945    0.0000 C.3     1  UNL1       -0.0286
     17 C           7.3991   -3.8582    0.0000 C.3     1  UNL1       -0.0362
     18 C           9.1971    1.9490    0.0000 C.3     1  UNL1       -0.0308
     19 C           2.3219   -3.1124    0.0000 C.ar    1  UNL1       -0.0611
     20 C           2.0000   -2.1218    0.0000 C.ar    1  UNL1       -0.0598
     21 C           7.2458    1.5106    0.0000 C.3     1  UNL1       -0.0438
     22 C          10.1728    2.1682    0.0000 C.2     1  UNL1       -0.0850
     23 C          10.4708    3.1228    0.0000 C.2     1  UNL1       -0.0796
     24 C          11.4465    3.3420    0.0000 C.3     1  UNL1       -0.0440
     25 C           9.7931    3.8582    0.0000 C.3     1  UNL1       -0.0440
     26 H           6.6210    0.2208    0.0000 H       1  UNL1        0.0357
     27 H           6.0349   -0.3193    0.0000 H       1  UNL1        0.0357
     28 H           4.5274   -0.3776    0.0000 H       1  UNL1        0.1659
     29 H           5.5139   -3.9085    0.0000 H       1  UNL1        0.0628
     30 H           8.0456   -0.6352    0.0000 H       1  UNL1        0.0575
     31 H           3.5408   -3.9085    0.0000 H       1  UNL1        0.0624
     32 H           2.5182   -0.7613    0.0000 H       1  UNL1        0.0638
     33 H           8.9279    0.3751    0.0000 H       1  UNL1        0.0313
     34 H           9.5141    0.9153    0.0000 H       1  UNL1        0.0313
     35 H           6.9368   -4.2712    0.0000 H       1  UNL1        0.0279
     36 H           7.8122   -4.3205    0.0000 H       1  UNL1        0.0279
     37 H           7.8614   -3.4451    0.0000 H       1  UNL1        0.0279
     38 H           9.1683    2.5684    0.0000 H       1  UNL1        0.0310
     39 H           8.5822    2.0282    0.0000 H       1  UNL1        0.0310
     40 H           1.9088   -3.5748    0.0000 H       1  UNL1        0.0618
     41 H           1.3940   -1.9905    0.0000 H       1  UNL1        0.0618
     42 H           7.7017    1.9308    0.0000 H       1  UNL1        0.0274
     43 H           6.8256    1.9665    0.0000 H       1  UNL1        0.0274
     44 H           6.7899    1.0904    0.0000 H       1  UNL1        0.0274
     45 H           8.4487   -2.3692    0.0000 H       1  UNL1        0.2922
     46 H          10.5930    1.7123    0.0000 H       1  UNL1        0.0572
     47 H          11.5824    2.7371    0.0000 H       1  UNL1        0.0274
     48 H          12.0514    3.4779    0.0000 H       1  UNL1        0.0274
     49 H          11.3106    3.9469    0.0000 H       1  UNL1        0.0274
     50 H          10.2491    4.2783    0.0000 H       1  UNL1        0.0274
     51 H           9.3730    4.3141    0.0000 H       1  UNL1        0.0274
     52 H           9.3372    3.4380    0.0000 H       1  UNL1        0.0274
@<TRIPOS>BOND
     1     1     9    1
     2     1    45    1
     3     2     3   ar
     4     2     7   ar
     5     2    28    1
     6     3     4   ar
     7     3     5   ar
     8     4     6   ar
     9     4    10   ar
    10     5     8    1
    11     5     9   ar
    12     6     7   ar
    13     6    13   ar
    14     7    15   ar
    15     8    12    1
    16     8    26    1
    17     8    27    1
    18     9    11   ar
    19    10    11   ar
    20    10    29    1
    21    11    17    1
    22    12    14    2
    23    12    30    1
    24    13    19   ar
    25    13    31    1
    26    14    16    1
    27    14    21    1
    28    15    20   ar
    29    15    32    1
    30    16    18    1
    31    16    33    1
    32    16    34    1
    33    17    35    1
    34    17    36    1
    35    17    37    1
    36    18    22    1
    37    18    38    1
    38    18    39    1
    39    19    20   ar
    40    19    40    1
    41    20    41    1
    42    21    42    1
    43    21    43    1
    44    21    44    1
    45    22    23    2
    46    22    46    1
    47    23    24    1
    48    23    25    1
    49    24    47    1
    50    24    48    1
    51    24    49    1
    52    25    50    1
    53    25    51    1
    54    25    52    1
