@<TRIPOS>MOLECULE
IMPHY009107
 223 234 0 0 0
SMALL
GASTEIGER

@<TRIPOS>ATOM
      1 O           7.7331   -8.7473    0.0000 O.3     1  UNL1       -0.3423
      2 O          10.5272   -1.6688    0.0000 O.3     1  UNL1       -0.3906
      3 O           5.9257   -7.6945    0.0000 O.3     1  UNL1       -0.3892
      4 O          10.1773   -8.0556    0.0000 O.3     1  UNL1       -0.3944
      5 O           9.4869    0.5321    0.0000 O.3     1  UNL1       -0.4318
      6 O          10.4812   -0.2828    0.0000 O.2     1  UNL1       -0.2500
      7 O           6.0010   -8.7473    0.0000 O.3     1  UNL1       -0.3405
      8 O           7.7331  -10.7473    0.0000 O.3     1  UNL1       -0.3841
      9 O          11.2188    0.5521    0.0000 O.3     1  UNL1       -0.3338
     10 O           6.0010  -11.7473    0.0000 O.3     1  UNL1       -0.3401
     11 O           9.4638    2.5320    0.0000 O.3     1  UNL1       -0.3366
     12 O           4.2690  -10.7473    0.0000 O.3     1  UNL1       -0.3865
     13 O          11.1841    3.5519    0.0000 O.3     1  UNL1       -0.3863
     14 O           4.2690   -7.7473    0.0000 O.3     1  UNL1       -0.3924
     15 O          12.9276    2.5720    0.0000 O.3     1  UNL1       -0.3866
     16 O           5.1350  -13.2473    0.0000 O.3     1  UNL1       -0.3405
     17 O          10.3124    4.0419    0.0000 O.3     1  UNL1       -0.3431
     18 O           4.2690  -10.7473    0.0000 O.3     1  UNL1       -0.3841
     19 O           7.7203    3.5119    0.0000 O.3     1  UNL1       -0.3841
     20 O           2.5369  -11.7473    0.0000 O.3     1  UNL1       -0.3864
     21 O           2.5369  -13.7473    0.0000 O.3     1  UNL1       -0.3865
     22 O           7.6971    5.5118    0.0000 O.3     1  UNL1       -0.3864
     23 O           9.4175    6.5317    0.0000 O.3     1  UNL1       -0.3402
     24 O           5.1350  -15.2473    0.0000 O.3     1  UNL1       -0.3924
     25 O          11.1494    6.5517    0.0000 O.3     1  UNL1       -0.3461
     26 O           9.3944    8.5316    0.0000 O.3     1  UNL1       -0.3841
     27 O          11.1148    9.5515    0.0000 O.3     1  UNL1       -0.3401
     28 O          12.8583    8.5716    0.0000 O.3     1  UNL1       -0.3868
     29 O          12.8467    9.5716    0.0000 O.3     1  UNL1       -0.3431
     30 O          11.0916   11.5514    0.0000 O.3     1  UNL1       -0.3378
     31 O          12.8120   12.5714    0.0000 O.3     1  UNL1       -0.3864
     32 O          14.5555   11.5915    0.0000 O.3     1  UNL1       -0.3866
     33 O          11.9403   13.0613    0.0000 O.3     1  UNL1       -0.3431
     34 O           9.3481   12.5313    0.0000 O.3     1  UNL1       -0.3841
     35 O           9.3250   14.5312    0.0000 O.3     1  UNL1       -0.3864
     36 O          11.0454   15.5511    0.0000 O.3     1  UNL1       -0.3866
     37 C           8.6342   -4.0471    0.0000 C.3     1  UNL1       -0.0193
     38 C           7.7580   -5.5920    0.0000 C.3     1  UNL1       -0.0225
     39 C           7.7701   -4.5504    0.0000 C.3     1  UNL1       -0.0257
     40 C           8.6303   -3.0471    0.0000 C.3     1  UNL1       -0.0028
     41 C           8.6581   -6.1163    0.0000 C.3     1  UNL1       -0.0253
     42 C           9.5461   -4.5504    0.0000 C.3     1  UNL1       -0.0463
     43 C           8.6706   -7.2012    0.0000 C.3     1  UNL1        0.0231
     44 C           9.5581   -5.5920    0.0000 C.3     1  UNL1       -0.0485
     45 C           7.7624   -2.5504    0.0000 C.2     1  UNL1       -0.0627
     46 C           6.8081   -6.1163    0.0000 C.3     1  UNL1       -0.0184
     47 C           7.7423   -1.5090    0.0000 C.3     1  UNL1       -0.0007
     48 C           6.9021   -4.0538    0.0000 C.3     1  UNL1       -0.0306
     49 C           9.5383   -2.5368    0.0000 C.3     1  UNL1       -0.0162
     50 C           8.6383   -0.9778    0.0000 C.3     1  UNL1        0.1000
     51 C           7.7331   -7.7473    0.0000 C.3     1  UNL1        0.0953
     52 C           9.5424   -1.4951    0.0000 C.3     1  UNL1        0.0723
     53 C           9.6183   -3.8697    0.0000 C.3     1  UNL1       -0.0585
     54 C           6.7956   -7.2012    0.0000 C.3     1  UNL1        0.0825
     55 C           6.8939   -5.0887    0.0000 C.3     1  UNL1       -0.0589
     56 C           6.8983   -3.0538    0.0000 C.2     1  UNL1       -0.0836
     57 C           9.6158   -3.2170    0.0000 C.3     1  UNL1       -0.0552
     58 C           6.7884   -0.9921    0.0000 C.3     1  UNL1       -0.0402
     59 C           8.6424    0.1072    0.0000 C.3     1  UNL1       -0.0338
     60 C           6.7674    0.0927    0.0000 C.3     1  UNL1       -0.0343
     61 C           9.6706   -7.1935    0.0000 C.3     1  UNL1        0.0523
     62 C           9.1773   -8.0634    0.0000 C.3     1  UNL1       -0.0547
     63 C           7.7007    0.6461    0.0000 C.3     1  UNL1       -0.0467
     64 C           9.4985   -0.4678    0.0000 C.2     1  UNL1        0.3186
     65 C           6.2542    0.9509    0.0000 C.3     1  UNL1       -0.0598
     66 C           5.7676    0.0773    0.0000 C.3     1  UNL1       -0.0598
     67 C           6.8671   -9.2473    0.0000 C.3     1  UNL1        0.1884
     68 C           6.8671  -10.2473    0.0000 C.3     1  UNL1        0.1345
     69 C          10.3471    1.0421    0.0000 C.3     1  UNL1        0.2340
     70 C           6.0010  -10.7473    0.0000 C.3     1  UNL1        0.1206
     71 C           5.1350   -9.2473    0.0000 C.3     1  UNL1        0.1130
     72 C           5.1350  -10.2473    0.0000 C.3     1  UNL1        0.1123
     73 C          10.3355    2.0420    0.0000 C.3     1  UNL1        0.1520
     74 C          11.1957    2.5520    0.0000 C.3     1  UNL1        0.1155
     75 C           4.2690   -8.7473    0.0000 C.3     1  UNL1        0.0730
     76 C          12.0790    1.0621    0.0000 C.3     1  UNL1        0.0883
     77 C          12.0675    2.0620    0.0000 C.3     1  UNL1        0.1096
     78 C           5.1350  -12.2473    0.0000 C.3     1  UNL1        0.1884
     79 C          12.9508    0.5722    0.0000 C.3     1  UNL1       -0.0360
     80 C           9.4522    3.5319    0.0000 C.3     1  UNL1        0.1885
     81 C           4.2690  -11.7473    0.0000 C.3     1  UNL1        0.1341
     82 C           8.5805    4.0219    0.0000 C.3     1  UNL1        0.1341
     83 C           3.4030  -12.2473    0.0000 C.3     1  UNL1        0.1141
     84 C           4.2690  -13.7473    0.0000 C.3     1  UNL1        0.1130
     85 C           3.4030  -13.2473    0.0000 C.3     1  UNL1        0.1119
     86 C           8.5689    5.0218    0.0000 C.3     1  UNL1        0.1143
     87 C          10.3008    5.0418    0.0000 C.3     1  UNL1        0.0877
     88 C           9.4291    5.5318    0.0000 C.3     1  UNL1        0.1160
     89 C           4.2690  -14.7473    0.0000 C.3     1  UNL1        0.0730
     90 C          11.1610    5.5518    0.0000 C.3     1  UNL1       -0.0361
     91 C          10.2777    7.0417    0.0000 C.3     1  UNL1        0.1880
     92 C          10.2661    8.0416    0.0000 C.3     1  UNL1        0.1345
     93 C          11.1263    8.5516    0.0000 C.3     1  UNL1        0.1202
     94 C          12.0096    7.0617    0.0000 C.3     1  UNL1        0.0792
     95 C          11.9981    8.0616    0.0000 C.3     1  UNL1        0.1073
     96 C          11.9749   10.0615    0.0000 C.3     1  UNL1        0.1887
     97 C          11.9634   11.0615    0.0000 C.3     1  UNL1        0.1406
     98 C          12.8236   11.5714    0.0000 C.3     1  UNL1        0.1143
     99 C          13.7069   10.0815    0.0000 C.3     1  UNL1        0.0873
    100 C          13.6953   11.0815    0.0000 C.3     1  UNL1        0.1095
    101 C          14.5786    9.5916    0.0000 C.3     1  UNL1       -0.0361
    102 C          11.0801   12.5513    0.0000 C.3     1  UNL1        0.1884
    103 C          10.2083   13.0413    0.0000 C.3     1  UNL1        0.1341
    104 C          10.1968   14.0412    0.0000 C.3     1  UNL1        0.1140
    105 C          11.9287   14.0613    0.0000 C.3     1  UNL1        0.0873
    106 C          11.0569   14.5512    0.0000 C.3     1  UNL1        0.1095
    107 C          12.7889   14.5712    0.0000 C.3     1  UNL1       -0.0361
    108 H           8.5045   -4.9783    0.0000 H       1  UNL1        0.0315
    109 H           9.3974   -6.5356    0.0000 H       1  UNL1        0.0313
    110 H          10.1581   -4.6495    0.0000 H       1  UNL1        0.0271
    111 H           9.7484   -3.9644    0.0000 H       1  UNL1        0.0271
    112 H           9.7739   -6.1732    0.0000 H       1  UNL1        0.0268
    113 H          10.1677   -5.4789    0.0000 H       1  UNL1        0.0268
    114 H           6.6058   -5.5302    0.0000 H       1  UNL1        0.0296
    115 H           6.1961   -6.2153    0.0000 H       1  UNL1        0.0296
    116 H           7.0162   -1.9509    0.0000 H       1  UNL1        0.0357
    117 H           6.2911   -3.9485    0.0000 H       1  UNL1        0.0310
    118 H           6.6923   -4.6372    0.0000 H       1  UNL1        0.0310
    119 H           9.7451   -3.1212    0.0000 H       1  UNL1        0.0299
    120 H          10.1496   -2.4330    0.0000 H       1  UNL1        0.0299
    121 H           8.2706   -8.0563    0.0000 H       1  UNL1        0.0629
    122 H           9.7533   -0.9121    0.0000 H       1  UNL1        0.0605
    123 H           9.7283   -4.4798    0.0000 H       1  UNL1        0.0235
    124 H          10.2284   -3.7596    0.0000 H       1  UNL1        0.0235
    125 H           9.5083   -3.2595    0.0000 H       1  UNL1        0.0235
    126 H           6.2616   -6.8860    0.0000 H       1  UNL1        0.0619
    127 H           7.2060   -4.5529    0.0000 H       1  UNL1        0.0235
    128 H           6.3582   -4.7766    0.0000 H       1  UNL1        0.0235
    129 H           6.5818   -5.6244    0.0000 H       1  UNL1        0.0235
    130 H           6.3601   -2.7459    0.0000 H       1  UNL1        0.0572
    131 H           9.5105   -3.8280    0.0000 H       1  UNL1        0.0238
    132 H          10.2268   -3.3223    0.0000 H       1  UNL1        0.0238
    133 H           9.7211   -2.6060    0.0000 H       1  UNL1        0.0238
    134 H           6.1756   -0.8978    0.0000 H       1  UNL1        0.0276
    135 H           6.5906   -1.5797    0.0000 H       1  UNL1        0.0276
    136 H           9.2529   -0.0013    0.0000 H       1  UNL1        0.0277
    137 H           8.8538    0.6901    0.0000 H       1  UNL1        0.0277
    138 H          10.2516   -6.9770    0.0000 H       1  UNL1        0.0563
    139 H           9.5582   -6.5838    0.0000 H       1  UNL1        0.0563
    140 H           8.6428   -8.3775    0.0000 H       1  UNL1        0.0237
    141 H           9.4914   -8.5979    0.0000 H       1  UNL1        0.0237
    142 H           9.7118   -7.7492    0.0000 H       1  UNL1        0.0237
    143 H           8.0962    1.1236    0.0000 H       1  UNL1        0.0271
    144 H           7.2980    1.1174    0.0000 H       1  UNL1        0.0271
    145 H          10.7392   -2.2514    0.0000 H       1  UNL1        0.2098
    146 H           5.3912   -7.3804    0.0000 H       1  UNL1        0.2099
    147 H           6.7862    1.2692    0.0000 H       1  UNL1        0.0235
    148 H           5.9359    1.4830    0.0000 H       1  UNL1        0.0235
    149 H           5.7220    0.6327    0.0000 H       1  UNL1        0.0235
    150 H           5.7580    0.6972    0.0000 H       1  UNL1        0.0235
    151 H           5.1476    0.0678    0.0000 H       1  UNL1        0.0235
    152 H           5.7771   -0.5426    0.0000 H       1  UNL1        0.0235
    153 H           7.4040   -9.5573    0.0000 H       1  UNL1        0.0938
    154 H          10.7972   -8.0509    0.0000 H       1  UNL1        0.2094
    155 H           6.8671  -10.8673    0.0000 H       1  UNL1        0.0671
    156 H          10.3542    0.4221    0.0000 H       1  UNL1        0.1085
    157 H           5.4641  -11.0573    0.0000 H       1  UNL1        0.0651
    158 H           5.1350   -8.6273    0.0000 H       1  UNL1        0.0647
    159 H           4.5981   -9.9373    0.0000 H       1  UNL1        0.0647
    160 H          10.3283    2.6620    0.0000 H       1  UNL1        0.0687
    161 H           7.7331  -11.3673    0.0000 H       1  UNL1        0.2101
    162 H          11.7290    2.8682    0.0000 H       1  UNL1        0.0648
    163 H           3.6584   -8.6397    0.0000 H       1  UNL1        0.0584
    164 H           4.0569   -9.3299    0.0000 H       1  UNL1        0.0584
    165 H          12.0862    0.4422    0.0000 H       1  UNL1        0.0621
    166 H          12.6079    1.7583    0.0000 H       1  UNL1        0.0646
    167 H           3.7320  -10.4373    0.0000 H       1  UNL1        0.2100
    168 H           5.1350  -11.6273    0.0000 H       1  UNL1        0.0938
    169 H          12.6470    0.0317    0.0000 H       1  UNL1        0.0255
    170 H          13.4912    0.2684    0.0000 H       1  UNL1        0.0255
    171 H          13.2545    1.1126    0.0000 H       1  UNL1        0.0255
    172 H           8.9189    3.2157    0.0000 H       1  UNL1        0.0938
    173 H          11.7175    3.8681    0.0000 H       1  UNL1        0.2100
    174 H           3.7320   -7.4373    0.0000 H       1  UNL1        0.2095
    175 H           3.7320  -11.4373    0.0000 H       1  UNL1        0.0671
    176 H          13.4681    2.2683    0.0000 H       1  UNL1        0.2100
    177 H           8.0400    4.3256    0.0000 H       1  UNL1        0.0671
    178 H           3.9650  -11.6273    0.0000 H       1  UNL1        0.0648
    179 H           4.8059  -14.0573    0.0000 H       1  UNL1        0.0647
    180 H           3.4030  -13.8673    0.0000 H       1  UNL1        0.0647
    181 H           8.5617    5.6418    0.0000 H       1  UNL1        0.0648
    182 H          10.8413    4.7380    0.0000 H       1  UNL1        0.0621
    183 H           9.9624    5.8480    0.0000 H       1  UNL1        0.0650
    184 H           3.7320  -10.4373    0.0000 H       1  UNL1        0.2101
    185 H           3.6584  -14.6397    0.0000 H       1  UNL1        0.0584
    186 H           4.0569  -15.3299    0.0000 H       1  UNL1        0.0584
    187 H           7.1798    3.8156    0.0000 H       1  UNL1        0.2101
    188 H           2.0000  -12.0573    0.0000 H       1  UNL1        0.2100
    189 H          11.4772    5.0185    0.0000 H       1  UNL1        0.0255
    190 H          11.6943    5.8680    0.0000 H       1  UNL1        0.0255
    191 H          10.8448    6.0851    0.0000 H       1  UNL1        0.0255
    192 H           2.5369  -14.3673    0.0000 H       1  UNL1        0.2100
    193 H           7.6900    6.1317    0.0000 H       1  UNL1        0.2100
    194 H           5.1350  -15.8673    0.0000 H       1  UNL1        0.2095
    195 H          10.2849    6.4217    0.0000 H       1  UNL1        0.0937
    196 H          10.2590    8.6616    0.0000 H       1  UNL1        0.0671
    197 H          11.6596    8.8678    0.0000 H       1  UNL1        0.0651
    198 H          12.2284    6.4816    0.0000 H       1  UNL1        0.0587
    199 H          12.6189    7.1764    0.0000 H       1  UNL1        0.0587
    200 H          12.5386    7.7579    0.0000 H       1  UNL1        0.0643
    201 H           9.3872    9.1515    0.0000 H       1  UNL1        0.2101
    202 H          13.3987    8.2679    0.0000 H       1  UNL1        0.2100
    203 H          11.9821    9.4416    0.0000 H       1  UNL1        0.0938
    204 H          11.4301   10.7453    0.0000 H       1  UNL1        0.0675
    205 H          12.2831   11.8752    0.0000 H       1  UNL1        0.0648
    206 H          13.7140    9.4616    0.0000 H       1  UNL1        0.0621
    207 H          14.2358   10.7777    0.0000 H       1  UNL1        0.0646
    208 H          14.2749    9.0511    0.0000 H       1  UNL1        0.0255
    209 H          15.1191    9.2878    0.0000 H       1  UNL1        0.0255
    210 H          14.8824   10.1321    0.0000 H       1  UNL1        0.0255
    211 H          10.5468   12.2351    0.0000 H       1  UNL1        0.0938
    212 H          13.3453   12.8876    0.0000 H       1  UNL1        0.2100
    213 H          15.0960   11.2877    0.0000 H       1  UNL1        0.2100
    214 H           9.6678   13.3451    0.0000 H       1  UNL1        0.0671
    215 H          10.1896   14.6612    0.0000 H       1  UNL1        0.0648
    216 H          12.4692   13.7575    0.0000 H       1  UNL1        0.0621
    217 H          11.5903   14.8674    0.0000 H       1  UNL1        0.0646
    218 H           8.8076   12.8351    0.0000 H       1  UNL1        0.2101
    219 H          13.1051   14.0379    0.0000 H       1  UNL1        0.0255
    220 H          13.3222   14.8874    0.0000 H       1  UNL1        0.0255
    221 H          12.4727   15.1045    0.0000 H       1  UNL1        0.0255
    222 H           9.3178   15.1511    0.0000 H       1  UNL1        0.2100
    223 H          11.5787   15.8673    0.0000 H       1  UNL1        0.2100
@<TRIPOS>BOND
     1    51     1    1
     2    67     1    1
     3    52     2    1
     4     2   145    1
     5    54     3    1
     6     3   146    1
     7     4    61    1
     8     4   154    1
     9     5    64    1
    10    69     5    1
    11     6    64    2
    12     7    67    1
    13     7    71    1
    14    68     8    1
    15     8   161    1
    16     9    69    1
    17     9    76    1
    18    70    10    1
    19    78    10    1
    20    73    11    1
    21    80    11    1
    22    72    12    1
    23    12   167    1
    24    74    13    1
    25    13   173    1
    26    14    75    1
    27    14   174    1
    28    77    15    1
    29    15   176    1
    30    16    78    1
    31    16    84    1
    32    17    80    1
    33    17    87    1
    34    81    18    1
    35    18   184    1
    36    82    19    1
    37    19   187    1
    38    83    20    1
    39    20   188    1
    40    85    21    1
    41    21   192    1
    42    86    22    1
    43    22   193    1
    44    88    23    1
    45    91    23    1
    46    24    89    1
    47    24   194    1
    48    25    91    1
    49    25    94    1
    50    92    26    1
    51    26   201    1
    52    93    27    1
    53    96    27    1
    54    95    28    1
    55    28   202    1
    56    29    96    1
    57    29    99    1
    58    97    30    1
    59   102    30    1
    60    98    31    1
    61    31   212    1
    62   100    32    1
    63    32   213    1
    64    33   102    1
    65    33   105    1
    66   103    34    1
    67    34   218    1
    68   104    35    1
    69    35   222    1
    70   106    36    1
    71    36   223    1
    72    37    39    1
    73    37    40    1
    74    37    42    1
    75    37    53    1
    76    38    39    1
    77    38    41    1
    78    38    46    1
    79    38    55    1
    80    39    48    1
    81    39   108    1
    82    40    45    1
    83    40    49    1
    84    40    57    1
    85    41    43    1
    86    41    44    1
    87    41   109    1
    88    42    44    1
    89    42   110    1
    90    42   111    1
    91    43    51    1
    92    43    61    1
    93    43    62    1
    94    44   112    1
    95    44   113    1
    96    45    47    1
    97    45    56    2
    98    46    54    1
    99    46   114    1
   100    46   115    1
   101    47    50    1
   102    47    58    1
   103    47   116    1
   104    48    56    1
   105    48   117    1
   106    48   118    1
   107    49    52    1
   108    49   119    1
   109    49   120    1
   110    50    52    1
   111    50    59    1
   112    50    64    1
   113    51    54    1
   114    51   121    1
   115    52   122    1
   116    53   123    1
   117    53   124    1
   118    53   125    1
   119    54   126    1
   120    55   127    1
   121    55   128    1
   122    55   129    1
   123    56   130    1
   124    57   131    1
   125    57   132    1
   126    57   133    1
   127    58    60    1
   128    58   134    1
   129    58   135    1
   130    59    63    1
   131    59   136    1
   132    59   137    1
   133    60    63    1
   134    60    65    1
   135    60    66    1
   136    61   138    1
   137    61   139    1
   138    62   140    1
   139    62   141    1
   140    62   142    1
   141    63   143    1
   142    63   144    1
   143    65   147    1
   144    65   148    1
   145    65   149    1
   146    66   150    1
   147    66   151    1
   148    66   152    1
   149    67    68    1
   150    67   153    1
   151    68    70    1
   152    68   155    1
   153    69    73    1
   154    69   156    1
   155    70    72    1
   156    70   157    1
   157    71    72    1
   158    71    75    1
   159    71   158    1
   160    72   159    1
   161    73    74    1
   162    73   160    1
   163    74    77    1
   164    74   162    1
   165    75   163    1
   166    75   164    1
   167    76    77    1
   168    76    79    1
   169    76   165    1
   170    77   166    1
   171    78    81    1
   172    78   168    1
   173    79   169    1
   174    79   170    1
   175    79   171    1
   176    80    82    1
   177    80   172    1
   178    81    83    1
   179    81   175    1
   180    82    86    1
   181    82   177    1
   182    83    85    1
   183    83   178    1
   184    84    85    1
   185    84    89    1
   186    84   179    1
   187    85   180    1
   188    86    88    1
   189    86   181    1
   190    87    88    1
   191    87    90    1
   192    87   182    1
   193    88   183    1
   194    89   185    1
   195    89   186    1
   196    90   189    1
   197    90   190    1
   198    90   191    1
   199    91    92    1
   200    91   195    1
   201    92    93    1
   202    92   196    1
   203    93    95    1
   204    93   197    1
   205    94    95    1
   206    94   198    1
   207    94   199    1
   208    95   200    1
   209    96    97    1
   210    96   203    1
   211    97    98    1
   212    97   204    1
   213    98   100    1
   214    98   205    1
   215    99   100    1
   216    99   101    1
   217    99   206    1
   218   100   207    1
   219   101   208    1
   220   101   209    1
   221   101   210    1
   222   102   103    1
   223   102   211    1
   224   103   104    1
   225   103   214    1
   226   104   106    1
   227   104   215    1
   228   105   106    1
   229   105   107    1
   230   105   216    1
   231   106   217    1
   232   107   219    1
   233   107   220    1
   234   107   221    1
