@<TRIPOS>MOLECULE
IMPHY010505
 94 96 0 0 0
SMALL
GASTEIGER

@<TRIPOS>ATOM
      1 O           6.7136    3.3758    0.0000 O.2     1  UNL1       -0.2953
      2 O           6.5053   -1.3038    0.0000 O.2     1  UNL1       -0.2907
      3 O           5.3013    2.0041    0.0000 O.2     1  UNL1       -0.2908
      4 O           3.9356    0.5556    0.0000 O.2     1  UNL1       -0.5054
      5 O           2.4750   -2.7409    0.0000 O.3     1  UNL1       -0.5033
      6 O           4.0070   -4.0264    0.0000 O.3     1  UNL1       -0.5033
      7 C           8.9631   -0.2334    0.0000 C.3     1  UNL1       -0.0120
      8 C           7.6914    0.5613    0.0000 C.3     1  UNL1        0.1014
      9 C           9.7402    0.3960    0.0000 C.3     1  UNL1       -0.0298
     10 C           7.9502    1.5272    0.0000 C.3     1  UNL1        0.0935
     11 C           9.3818    1.3295    0.0000 C.3     1  UNL1       -0.0298
     12 C           7.2136    2.5098    0.0000 C.2     1  UNL1        0.1613
     13 C           8.2090    2.4931    0.0000 C.3     1  UNL1       -0.0269
     14 C           7.4326   -0.4047    0.0000 C.3     1  UNL1       -0.0144
     15 C           6.4704   -0.3044    0.0000 C.2     1  UNL1        0.1841
     16 C           9.5077   -1.0720    0.0000 C.3     1  UNL1       -0.0582
     17 C           8.8412   -1.2259    0.0000 C.3     1  UNL1       -0.0582
     18 C           5.9170    1.2161    0.0000 C.2     1  UNL1        0.1833
     19 C          10.7061    0.1371    0.0000 C.3     1  UNL1       -0.0311
     20 C           5.6413    0.2548    0.0000 C.2     1  UNL1        0.1036
     21 C           9.1750    2.7519    0.0000 C.3     1  UNL1       -0.0188
     22 C           8.1397   -1.1118    0.0000 C.2     1  UNL1       -0.0839
     23 C          10.9650   -0.8288    0.0000 C.2     1  UNL1       -0.0850
     24 C           9.8820    2.0448    0.0000 C.3     1  UNL1       -0.0428
     25 C           4.7016   -0.0872    0.0000 C.2     1  UNL1        0.1380
     26 C           9.4338    3.7179    0.0000 C.2     1  UNL1       -0.0766
     27 C           7.8808   -2.0777    0.0000 C.2     1  UNL1       -0.0796
     28 C          10.8480    2.3037    0.0000 C.3     1  UNL1       -0.0317
     29 C          11.9309   -1.0876    0.0000 C.2     1  UNL1       -0.0796
     30 C           4.5280   -1.0720    0.0000 C.ar    1  UNL1        0.0209
     31 C          10.3997    3.9767    0.0000 C.3     1  UNL1       -0.0438
     32 C           8.7267    4.4250    0.0000 C.2     1  UNL1       -0.0994
     33 C           8.5880   -2.7848    0.0000 C.3     1  UNL1       -0.0440
     34 C           6.9149   -2.3365    0.0000 C.3     1  UNL1       -0.0440
     35 C          11.5551    1.5966    0.0000 C.2     1  UNL1       -0.0797
     36 C          12.1897   -2.0535    0.0000 C.3     1  UNL1       -0.0440
     37 C          12.6380   -0.3805    0.0000 C.3     1  UNL1       -0.0440
     38 C           3.5883   -1.4140    0.0000 C.ar    1  UNL1       -0.0059
     39 C           5.2940   -1.7148    0.0000 C.ar    1  UNL1       -0.0474
     40 C          12.5210    1.8554    0.0000 C.3     1  UNL1       -0.0440
     41 C           3.4146   -2.3988    0.0000 C.ar    1  UNL1        0.1589
     42 C          11.2963    0.6306    0.0000 C.2     1  UNL1       -0.0997
     43 C           5.1204   -2.6996    0.0000 C.ar    1  UNL1       -0.0159
     44 C           4.1807   -3.0416    0.0000 C.ar    1  UNL1        0.1583
     45 H          10.1551    0.8567    0.0000 H       1  UNL1        0.0310
     46 H           9.9897    1.4519    0.0000 H       1  UNL1        0.0282
     47 H           9.3628    1.9492    0.0000 H       1  UNL1        0.0282
     48 H           8.1550    3.1108    0.0000 H       1  UNL1        0.0285
     49 H           7.5914    2.5472    0.0000 H       1  UNL1        0.0285
     50 H           6.8706   -0.1426    0.0000 H       1  UNL1        0.0321
     51 H           7.0770   -0.9125    0.0000 H       1  UNL1        0.0321
     52 H           8.9877   -1.4097    0.0000 H       1  UNL1        0.0235
     53 H           9.8454   -1.5920    0.0000 H       1  UNL1        0.0235
     54 H          10.0277   -0.7344    0.0000 H       1  UNL1        0.0235
     55 H           8.2259   -1.1504    0.0000 H       1  UNL1        0.0235
     56 H           8.7657   -1.8413    0.0000 H       1  UNL1        0.0235
     57 H           9.4566   -1.3014    0.0000 H       1  UNL1        0.0235
     58 H          11.3238    0.1912    0.0000 H       1  UNL1        0.0310
     59 H          10.7602    0.7548    0.0000 H       1  UNL1        0.0310
     60 H           9.7738    2.9124    0.0000 H       1  UNL1        0.0346
     61 H           8.7385   -0.9513    0.0000 H       1  UNL1        0.0572
     62 H          10.5266   -1.2672    0.0000 H       1  UNL1        0.0572
     63 H           9.3742    1.6892    0.0000 H       1  UNL1        0.0274
     64 H          10.1441    1.4829    0.0000 H       1  UNL1        0.0274
     65 H          11.3559    2.6593    0.0000 H       1  UNL1        0.0310
     66 H          10.5860    2.8656    0.0000 H       1  UNL1        0.0310
     67 H          10.5602    3.3778    0.0000 H       1  UNL1        0.0274
     68 H          10.9986    4.1372    0.0000 H       1  UNL1        0.0274
     69 H          10.2392    4.5756    0.0000 H       1  UNL1        0.0274
     70 H           8.8871    5.0239    0.0000 H       1  UNL1        0.0534
     71 H           8.1278    4.2645    0.0000 H       1  UNL1        0.0534
     72 H           3.3530    0.3435    0.0000 H       1  UNL1        0.2922
     73 H           6.7545   -1.7376    0.0000 H       1  UNL1        0.0274
     74 H           6.3160   -2.4970    0.0000 H       1  UNL1        0.0274
     75 H           7.0754   -2.9354    0.0000 H       1  UNL1        0.0274
     76 H           8.1496   -3.2232    0.0000 H       1  UNL1        0.0274
     77 H           9.0264   -3.2232    0.0000 H       1  UNL1        0.0274
     78 H           9.0264   -2.3464    0.0000 H       1  UNL1        0.0274
     79 H          11.5908   -2.2140    0.0000 H       1  UNL1        0.0274
     80 H          12.3502   -2.6524    0.0000 H       1  UNL1        0.0274
     81 H          12.7886   -1.8931    0.0000 H       1  UNL1        0.0274
     82 H          13.0764   -0.8189    0.0000 H       1  UNL1        0.0274
     83 H          13.0764    0.0579    0.0000 H       1  UNL1        0.0274
     84 H          12.1996    0.0579    0.0000 H       1  UNL1        0.0274
     85 H           3.1133   -1.0155    0.0000 H       1  UNL1        0.0662
     86 H           5.8766   -1.5028    0.0000 H       1  UNL1        0.0626
     87 H          12.6815    1.2565    0.0000 H       1  UNL1        0.0274
     88 H          13.1199    2.0158    0.0000 H       1  UNL1        0.0274
     89 H          12.3605    2.4542    0.0000 H       1  UNL1        0.0274
     90 H          10.6974    0.4702    0.0000 H       1  UNL1        0.0534
     91 H          11.7347    0.1922    0.0000 H       1  UNL1        0.0534
     92 H           5.5953   -3.0982    0.0000 H       1  UNL1        0.0655
     93 H           2.0000   -2.3423    0.0000 H       1  UNL1        0.2923
     94 H           4.4820   -4.4250    0.0000 H       1  UNL1        0.2923
@<TRIPOS>BOND
     1     1    12    2
     2     2    15    2
     3     3    18    2
     4     4    25    1
     5     4    72    1
     6     5    41    1
     7     5    93    1
     8     6    44    1
     9     6    94    1
    10     7     8    1
    11     7     9    1
    12     7    16    1
    13     7    17    1
    14     8    12    1
    15     8    14    1
    16     8    15    1
    17     9    11    1
    18     9    19    1
    19     9    45    1
    20    10    11    1
    21    10    12    1
    22    10    13    1
    23    10    18    1
    24    11    46    1
    25    11    47    1
    26    13    21    1
    27    13    48    1
    28    13    49    1
    29    14    22    1
    30    14    50    1
    31    14    51    1
    32    15    20    1
    33    16    52    1
    34    16    53    1
    35    16    54    1
    36    17    55    1
    37    17    56    1
    38    17    57    1
    39    18    20    1
    40    19    23    1
    41    19    58    1
    42    19    59    1
    43    20    25    2
    44    21    24    1
    45    21    26    1
    46    21    60    1
    47    22    27    2
    48    22    61    1
    49    23    29    2
    50    23    62    1
    51    24    28    1
    52    24    63    1
    53    24    64    1
    54    25    30    1
    55    26    31    1
    56    26    32    2
    57    27    33    1
    58    27    34    1
    59    28    35    1
    60    28    65    1
    61    28    66    1
    62    29    36    1
    63    29    37    1
    64    30    38   ar
    65    30    39   ar
    66    31    67    1
    67    31    68    1
    68    31    69    1
    69    32    70    1
    70    32    71    1
    71    33    76    1
    72    33    77    1
    73    33    78    1
    74    34    73    1
    75    34    74    1
    76    34    75    1
    77    35    40    1
    78    35    42    2
    79    36    79    1
    80    36    80    1
    81    36    81    1
    82    37    82    1
    83    37    83    1
    84    37    84    1
    85    38    41   ar
    86    38    85    1
    87    39    43   ar
    88    39    86    1
    89    40    87    1
    90    40    88    1
    91    40    89    1
    92    41    44   ar
    93    42    90    1
    94    42    91    1
    95    43    44   ar
    96    43    92    1
