@<TRIPOS>MOLECULE
IMPHY014303
 80 83 0 0 0
SMALL
GASTEIGER

@<TRIPOS>ATOM
      1 O           5.0301   -3.2028    0.0000 O.3     1  UNL1       -0.3674
      2 O           3.7817   -3.3714    0.0000 O.3     1  UNL1       -0.4607
      3 O           5.5301   -3.3368    0.0000 O.3     1  UNL1       -0.4640
      4 O           4.7901    1.4183    0.0000 O.3     1  UNL1       -0.4566
      5 O           2.0498   -3.3914    0.0000 O.2     1  UNL1       -0.2512
      6 O           2.1104    3.3981    0.0000 O.3     1  UNL1       -0.4570
      7 O           4.6641   -4.8368    0.0000 O.2     1  UNL1       -0.2512
      8 O           4.8102    3.1502    0.0000 O.2     1  UNL1       -0.2505
      9 O           3.0982    4.8813    0.0000 O.2     1  UNL1       -0.2456
     10 C           4.6641   -1.8368    0.0000 C.3     1  UNL1        0.0761
     11 C           5.5301   -2.3368    0.0000 C.3     1  UNL1        0.1051
     12 C           4.6641   -0.8368    0.0000 C.3     1  UNL1       -0.0204
     13 C           3.7702   -0.3021    0.0000 C.3     1  UNL1       -0.0221
     14 C           3.7702   -2.3714    0.0000 C.3     1  UNL1        0.1150
     15 C           2.8641   -0.8160    0.0000 C.3     1  UNL1       -0.0347
     16 C           6.3961   -1.8368    0.0000 C.3     1  UNL1       -0.0208
     17 C           5.5301   -0.3368    0.0000 C.3     1  UNL1       -0.0488
     18 C           6.0301   -3.2028    0.0000 C.3     1  UNL1        0.0783
     19 C           2.8641   -1.8576    0.0000 C.3     1  UNL1       -0.0118
     20 C           6.3961   -0.8368    0.0000 C.3     1  UNL1       -0.0501
     21 C           4.6641   -2.8368    0.0000 C.3     1  UNL1        0.1044
     22 C           3.2802    0.5696    0.0000 C.3     1  UNL1       -0.0057
     23 C           4.2801    0.5581    0.0000 C.3     1  UNL1       -0.0589
     24 C           2.0000   -0.3126    0.0000 C.3     1  UNL1       -0.0618
     25 C           3.7902    1.4298    0.0000 C.3     1  UNL1        0.1282
     26 C           3.3002    2.3016    0.0000 C.2     1  UNL1        0.0142
     27 C           2.9215   -3.8814    0.0000 C.2     1  UNL1        0.3042
     28 C           5.5301   -4.3368    0.0000 C.2     1  UNL1        0.3040
     29 C           2.3070    2.4176    0.0000 C.3     1  UNL1        0.1178
     30 C           2.9331   -4.8813    0.0000 C.3     1  UNL1        0.0332
     31 C           3.7175    3.2104    0.0000 C.2     1  UNL1        0.0284
     32 C           5.3001    2.2784    0.0000 C.2     1  UNL1        0.3105
     33 C           6.3961   -4.8368    0.0000 C.3     1  UNL1        0.0332
     34 C           2.9822    3.8880    0.0000 C.2     1  UNL1        0.3324
     35 C           6.3000    2.2669    0.0000 C.3     1  UNL1        0.0534
     36 C           6.8100    3.1271    0.0000 C.3     1  UNL1       -0.0432
     37 C           6.7900    1.3951    0.0000 C.3     1  UNL1       -0.0523
     38 C           7.8100    3.1155    0.0000 C.3     1  UNL1       -0.0645
     39 H           4.6706    0.0132    0.0000 H       1  UNL1        0.0315
     40 H           3.2362   -2.6866    0.0000 H       1  UNL1        0.0742
     41 H           2.3266   -1.1249    0.0000 H       1  UNL1        0.0305
     42 H           6.6082   -2.4194    0.0000 H       1  UNL1        0.0294
     43 H           7.0067   -1.7291    0.0000 H       1  UNL1        0.0294
     44 H           5.9286    0.1382    0.0000 H       1  UNL1        0.0268
     45 H           5.1316    0.1382    0.0000 H       1  UNL1        0.0268
     46 H           6.1378   -3.8134    0.0000 H       1  UNL1        0.0589
     47 H           6.6127   -2.9907    0.0000 H       1  UNL1        0.0589
     48 H           2.2532   -1.7515    0.0000 H       1  UNL1        0.0304
     49 H           2.6550   -2.4413    0.0000 H       1  UNL1        0.0304
     50 H           7.0067   -0.9444    0.0000 H       1  UNL1        0.0266
     51 H           6.6082   -0.2542    0.0000 H       1  UNL1        0.0266
     52 H           4.0535   -2.7291    0.0000 H       1  UNL1        0.0705
     53 H           4.4520   -3.4194    0.0000 H       1  UNL1        0.0705
     54 H           2.8099    0.9736    0.0000 H       1  UNL1        0.0310
     55 H           2.8007    0.1766    0.0000 H       1  UNL1        0.0310
     56 H           4.8134    0.2419    0.0000 H       1  UNL1        0.0235
     57 H           4.5963    1.0914    0.0000 H       1  UNL1        0.0235
     58 H           3.7468    0.8743    0.0000 H       1  UNL1        0.0235
     59 H           2.3121    0.2231    0.0000 H       1  UNL1        0.0233
     60 H           1.4643   -0.0006    0.0000 H       1  UNL1        0.0233
     61 H           1.6879   -0.8484    0.0000 H       1  UNL1        0.0233
     62 H           4.1064    1.9631    0.0000 H       1  UNL1        0.0783
     63 H           1.6897    2.3599    0.0000 H       1  UNL1        0.0747
     64 H           2.2998    1.7976    0.0000 H       1  UNL1        0.0747
     65 H           2.3131   -4.8884    0.0000 H       1  UNL1        0.0342
     66 H           2.9403   -5.5012    0.0000 H       1  UNL1        0.0342
     67 H           3.5531   -4.8741    0.0000 H       1  UNL1        0.0342
     68 H           4.3254    3.3322    0.0000 H       1  UNL1        0.0691
     69 H           6.0862   -5.3737    0.0000 H       1  UNL1        0.0342
     70 H           6.9331   -5.1468    0.0000 H       1  UNL1        0.0342
     71 H           6.7062   -4.2998    0.0000 H       1  UNL1        0.0342
     72 H           5.9838    1.7336    0.0000 H       1  UNL1        0.0410
     73 H           6.9247    3.7364    0.0000 H       1  UNL1        0.0270
     74 H           6.2299    3.3458    0.0000 H       1  UNL1        0.0270
     75 H           6.2495    1.0914    0.0000 H       1  UNL1        0.0238
     76 H           7.0938    0.8546    0.0000 H       1  UNL1        0.0238
     77 H           7.3305    1.6989    0.0000 H       1  UNL1        0.0238
     78 H           7.8028    2.4956    0.0000 H       1  UNL1        0.0230
     79 H           8.4299    3.1083    0.0000 H       1  UNL1        0.0230
     80 H           7.8171    3.7355    0.0000 H       1  UNL1        0.0230
@<TRIPOS>BOND
     1    11     1    1
     2     1    18    1
     3    14     2    1
     4     2    27    1
     5     3    21    1
     6     3    28    1
     7    25     4    1
     8     4    32    1
     9     5    27    2
    10     6    29    1
    11     6    34    1
    12     7    28    2
    13     8    32    2
    14     9    34    2
    15    10    11    1
    16    10    12    1
    17    10    14    1
    18    10    21    1
    19    11    16    1
    20    11    18    1
    21    12    13    1
    22    12    17    1
    23    12    39    1
    24    13    15    1
    25    13    22    1
    26    13    23    1
    27    14    19    1
    28    14    40    1
    29    15    19    1
    30    15    24    1
    31    15    41    1
    32    16    20    1
    33    16    42    1
    34    16    43    1
    35    17    20    1
    36    17    44    1
    37    17    45    1
    38    18    46    1
    39    18    47    1
    40    19    48    1
    41    19    49    1
    42    20    50    1
    43    20    51    1
    44    21    52    1
    45    21    53    1
    46    22    25    1
    47    22    54    1
    48    22    55    1
    49    23    56    1
    50    23    57    1
    51    23    58    1
    52    24    59    1
    53    24    60    1
    54    24    61    1
    55    25    26    1
    56    25    62    1
    57    26    29    1
    58    26    31    2
    59    27    30    1
    60    28    33    1
    61    29    63    1
    62    29    64    1
    63    30    65    1
    64    30    66    1
    65    30    67    1
    66    31    34    1
    67    31    68    1
    68    32    35    1
    69    33    69    1
    70    33    70    1
    71    33    71    1
    72    35    36    1
    73    35    37    1
    74    35    72    1
    75    36    38    1
    76    36    73    1
    77    36    74    1
    78    37    75    1
    79    37    76    1
    80    37    77    1
    81    38    78    1
    82    38    79    1
    83    38    80    1
