@<TRIPOS>MOLECULE
IMPHY002941
 44 48 0 0 0
SMALL
GASTEIGER

@<TRIPOS>ATOM
      1 O           2.6079    0.6952    0.0000 O.3     1  UNL1       -0.4526
      2 O           2.6079    2.3716    0.0000 O.3     1  UNL1       -0.4526
      3 O           8.9752   -2.0647    0.0000 O.3     1  UNL1       -0.4907
      4 O          10.7866   -1.0189    0.0000 O.3     1  UNL1       -0.4914
      5 N           6.2435   -0.5081    0.0000 N.ar    1  UNL1       -0.1986
      6 C           6.2596    0.5334    0.0000 C.ar    1  UNL1        0.2231
      7 C           7.1256    1.0334    0.0000 C.ar    1  UNL1        0.0548
      8 C           5.3935    1.0334    0.0000 C.ar    1  UNL1        0.0576
      9 C           8.0356    0.5266    0.0000 C.ar    1  UNL1        0.0050
     10 C           8.0436   -0.5150    0.0000 C.ar    1  UNL1        0.0915
     11 C           5.3935    2.0334    0.0000 C.ar    1  UNL1       -0.0079
     12 C           7.1415   -1.0358    0.0000 C.ar    1  UNL1        0.1829
     13 C           7.1256    2.0334    0.0000 C.ar    1  UNL1       -0.0471
     14 C           4.4996    0.4988    0.0000 C.ar    1  UNL1       -0.0021
     15 C           6.2596    2.5334    0.0000 C.ar    1  UNL1       -0.0529
     16 C           4.4996    2.5681    0.0000 C.ar    1  UNL1       -0.0082
     17 C           3.5935    1.0126    0.0000 C.ar    1  UNL1        0.1670
     18 C           8.9790   -1.0648    0.0000 C.ar    1  UNL1        0.1748
     19 C           8.9624    1.0906    0.0000 C.ar    1  UNL1       -0.0494
     20 C           3.5935    2.0542    0.0000 C.ar    1  UNL1        0.1668
     21 C           5.3717   -0.9980    0.0000 C.3     1  UNL1        0.1410
     22 C           9.9187   -0.5223    0.0000 C.ar    1  UNL1        0.1623
     23 C           9.9103    0.5627    0.0000 C.ar    1  UNL1       -0.0157
     24 C           2.0000    1.5334    0.0000 C.3     1  UNL1        0.2332
     25 C           9.8393   -2.5681    0.0000 C.3     1  UNL1        0.0790
     26 C          11.6507   -0.5156    0.0000 C.3     1  UNL1        0.0790
     27 H           7.1391   -1.6558    0.0000 H       1  UNL1        0.1384
     28 H           7.6625    2.3434    0.0000 H       1  UNL1        0.0626
     29 H           4.5068   -0.1212    0.0000 H       1  UNL1        0.0663
     30 H           6.2596    3.1534    0.0000 H       1  UNL1        0.0624
     31 H           4.5068    3.1880    0.0000 H       1  UNL1        0.0661
     32 H           8.9505    1.7105    0.0000 H       1  UNL1        0.0625
     33 H           5.0680   -0.4576    0.0000 H       1  UNL1        0.0993
     34 H           4.8313   -1.3018    0.0000 H       1  UNL1        0.0993
     35 H           5.6755   -1.5385    0.0000 H       1  UNL1        0.0993
     36 H          10.4436    0.8789    0.0000 H       1  UNL1        0.0655
     37 H           1.5391    1.9482    0.0000 H       1  UNL1        0.1166
     38 H           1.5391    1.1187    0.0000 H       1  UNL1        0.1166
     39 H           9.5272   -3.1038    0.0000 H       1  UNL1        0.0660
     40 H          10.3750   -2.8802    0.0000 H       1  UNL1        0.0660
     41 H          10.1513   -2.0323    0.0000 H       1  UNL1        0.0660
     42 H          11.9628   -1.0513    0.0000 H       1  UNL1        0.0660
     43 H          12.1864   -0.2035    0.0000 H       1  UNL1        0.0660
     44 H          11.3386    0.0202    0.0000 H       1  UNL1        0.0660
@<TRIPOS>UNITY_ATOM_ATTR
5 1
charge 1
@<TRIPOS>BOND
     1     1    17    1
     2     1    24    1
     3     2    20    1
     4     2    24    1
     5     3    18    1
     6     3    25    1
     7     4    22    1
     8     4    26    1
     9     5     6   ar
    10     5    12   ar
    11     5    21    1
    12     6     7   ar
    13     6     8   ar
    14     7     9   ar
    15     7    13   ar
    16     8    11   ar
    17     8    14   ar
    18     9    10   ar
    19     9    19   ar
    20    10    12   ar
    21    10    18   ar
    22    11    15   ar
    23    11    16   ar
    24    12    27    1
    25    13    15   ar
    26    13    28    1
    27    14    17   ar
    28    14    29    1
    29    15    30    1
    30    16    20   ar
    31    16    31    1
    32    17    20   ar
    33    18    22   ar
    34    19    23   ar
    35    19    32    1
    36    21    33    1
    37    21    34    1
    38    21    35    1
    39    22    23   ar
    40    23    36    1
    41    24    37    1
    42    24    38    1
    43    25    39    1
    44    25    40    1
    45    25    41    1
    46    26    42    1
    47    26    43    1
    48    26    44    1
