@<TRIPOS>MOLECULE
IMPHY015594
 45 45 0 0 0
SMALL
GASTEIGER

@<TRIPOS>ATOM
      1 C           4.3917   -2.3786    0.0000 C.3     1  UNL1       -0.0531
      2 C           3.4136   -2.1707    0.0000 C.3     1  UNL1       -0.0531
      3 C           5.3698   -2.1707    0.0000 C.3     1  UNL1       -0.0531
      4 C           2.6045   -1.5829    0.0000 C.3     1  UNL1       -0.0531
      5 C           6.1789   -1.5829    0.0000 C.3     1  UNL1       -0.0531
      6 C           2.1045   -0.7169    0.0000 C.3     1  UNL1       -0.0531
      7 C           6.6789   -0.7169    0.0000 C.3     1  UNL1       -0.0531
      8 C           2.0000    0.2777    0.0000 C.3     1  UNL1       -0.0531
      9 C           6.7834    0.2777    0.0000 C.3     1  UNL1       -0.0531
     10 C           2.3090    1.2287    0.0000 C.3     1  UNL1       -0.0531
     11 C           6.4744    1.2287    0.0000 C.3     1  UNL1       -0.0531
     12 C           2.9782    1.9718    0.0000 C.3     1  UNL1       -0.0531
     13 C           5.8052    1.9718    0.0000 C.3     1  UNL1       -0.0531
     14 C           3.8917    2.3786    0.0000 C.3     1  UNL1       -0.0531
     15 C           4.8917    2.3786    0.0000 C.3     1  UNL1       -0.0531
     16 H           4.0450   -2.8926    0.0000 H       1  UNL1        0.0265
     17 H           4.3917   -1.7586    0.0000 H       1  UNL1        0.0265
     18 H           2.8878   -2.4992    0.0000 H       1  UNL1        0.0265
     19 H           3.6657   -1.6043    0.0000 H       1  UNL1        0.0265
     20 H           5.2622   -2.7813    0.0000 H       1  UNL1        0.0265
     21 H           5.1177   -1.6043    0.0000 H       1  UNL1        0.0265
     22 H           1.9906   -1.6692    0.0000 H       1  UNL1        0.0265
     23 H           3.0653   -1.1680    0.0000 H       1  UNL1        0.0265
     24 H           6.3288   -2.1845    0.0000 H       1  UNL1        0.0265
     25 H           5.7181   -1.1680    0.0000 H       1  UNL1        0.0265
     26 H           1.5086   -0.5460    0.0000 H       1  UNL1        0.0265
     27 H           2.6942   -0.5253    0.0000 H       1  UNL1        0.0265
     28 H           7.0606   -1.2054    0.0000 H       1  UNL1        0.0265
     29 H           6.0892   -0.5253    0.0000 H       1  UNL1        0.0265
     30 H           1.5250    0.6762    0.0000 H       1  UNL1        0.0265
     31 H           2.6166    0.2128    0.0000 H       1  UNL1        0.0265
     32 H           7.3308   -0.0134    0.0000 H       1  UNL1        0.0265
     33 H           6.1668    0.2128    0.0000 H       1  UNL1        0.0265
     34 H           2.0372    1.7860    0.0000 H       1  UNL1        0.0265
     35 H           2.8460    0.9187    0.0000 H       1  UNL1        0.0265
     36 H           7.0929    1.1855    0.0000 H       1  UNL1        0.0265
     37 H           5.9374    0.9187    0.0000 H       1  UNL1        0.0265
     38 H           2.9565    2.5915    0.0000 H       1  UNL1        0.0265
     39 H           3.3426    1.4703    0.0000 H       1  UNL1        0.0265
     40 H           6.3878    2.1839    0.0000 H       1  UNL1        0.0265
     41 H           5.4408    1.4703    0.0000 H       1  UNL1        0.0265
     42 H           4.1240    2.9534    0.0000 H       1  UNL1        0.0265
     43 H           4.0206    1.7721    0.0000 H       1  UNL1        0.0265
     44 H           5.3377    2.8093    0.0000 H       1  UNL1        0.0265
     45 H           4.7628    1.7721    0.0000 H       1  UNL1        0.0265
@<TRIPOS>BOND
     1     1     2    1
     2     1     3    1
     3     1    16    1
     4     1    17    1
     5     2     4    1
     6     2    18    1
     7     2    19    1
     8     3     5    1
     9     3    20    1
    10     3    21    1
    11     4     6    1
    12     4    22    1
    13     4    23    1
    14     5     7    1
    15     5    24    1
    16     5    25    1
    17     6     8    1
    18     6    26    1
    19     6    27    1
    20     7     9    1
    21     7    28    1
    22     7    29    1
    23     8    10    1
    24     8    30    1
    25     8    31    1
    26     9    11    1
    27     9    32    1
    28     9    33    1
    29    10    12    1
    30    10    34    1
    31    10    35    1
    32    11    13    1
    33    11    36    1
    34    11    37    1
    35    12    14    1
    36    12    38    1
    37    12    39    1
    38    13    15    1
    39    13    40    1
    40    13    41    1
    41    14    15    1
    42    14    42    1
    43    14    43    1
    44    15    44    1
    45    15    45    1
