@<TRIPOS>MOLECULE
IMPHY006851
 23 24 0 0 0
SMALL
GASTEIGER

@<TRIPOS>ATOM
      1 O           2.0000   -1.4584    0.0000 O.2     1  UNL1       -0.2973
      2 N           4.5120    1.1386    0.0000 N.3     1  UNL1       -0.3097
      3 C           4.9898   -0.8099    0.0000 C.3     1  UNL1        0.0145
      4 C           5.2486    0.1560    0.0000 C.3     1  UNL1        0.0145
      5 C           6.2614   -1.6046    0.0000 C.3     1  UNL1       -0.0371
      6 C           6.6802   -0.0416    0.0000 C.3     1  UNL1       -0.0371
      7 C           7.0386   -0.9752    0.0000 C.3     1  UNL1       -0.0502
      8 C           3.2153   -0.1551    0.0000 C.3     1  UNL1        0.0213
      9 C           3.7687   -1.6756    0.0000 C.3     1  UNL1        0.0213
     10 C           2.9397   -1.1164    0.0000 C.2     1  UNL1        0.1363
     11 H           5.2531   -0.4640    0.0000 H       1  UNL1        0.0464
     12 H           5.4920   -0.4465    0.0000 H       1  UNL1        0.0464
     13 H           5.8769   -2.0909    0.0000 H       1  UNL1        0.0280
     14 H           6.7024   -2.0404    0.0000 H       1  UNL1        0.0280
     15 H           7.2880    0.0807    0.0000 H       1  UNL1        0.0280
     16 H           6.6612    0.5781    0.0000 H       1  UNL1        0.0280
     17 H           7.3763   -1.4952    0.0000 H       1  UNL1        0.0266
     18 H           7.5910   -0.6938    0.0000 H       1  UNL1        0.0266
     19 H           4.2020    1.6756    0.0000 H       1  UNL1        0.1225
     20 H           3.2103    0.4649    0.0000 H       1  UNL1        0.0357
     21 H           2.6010   -0.0713    0.0000 H       1  UNL1        0.0357
     22 H           3.3629   -2.1443    0.0000 H       1  UNL1        0.0357
     23 H           4.1854   -2.1347    0.0000 H       1  UNL1        0.0357
@<TRIPOS>BOND
     1     1    10    2
     2     2     3    1
     3     2     4    1
     4     2    19    1
     5     3     5    1
     6     3     9    1
     7     3    12    1
     8     4     6    1
     9     4     8    1
    10     4    11    1
    11     5     7    1
    12     5    13    1
    13     5    14    1
    14     6     7    1
    15     6    15    1
    16     6    16    1
    17     7    17    1
    18     7    18    1
    19     8    10    1
    20     8    20    1
    21     8    21    1
    22     9    10    1
    23     9    22    1
    24     9    23    1
