@<TRIPOS>MOLECULE
IMPHY015609
 35 34 0 0 0
SMALL
GASTEIGER

@<TRIPOS>ATOM
      1 O           8.0622    1.5000    0.0000 O.3     1  UNL1       -0.4615
      2 O           2.8660    1.5000    0.0000 O.3     1  UNL1       -0.4679
      3 O           3.7320   -0.0000    0.0000 O.2     1  UNL1       -0.2509
      4 O           8.9282    0.0000    0.0000 O.2     1  UNL1       -0.2512
      5 C           7.1962    1.0000    0.0000 C.3     1  UNL1        0.1031
      6 C           6.3301    1.5000    0.0000 C.3     1  UNL1       -0.0152
      7 C           7.1962    0.0000    0.0000 C.3     1  UNL1       -0.0159
      8 C           5.4641    1.0000    0.0000 C.3     1  UNL1       -0.0396
      9 C           6.3301   -0.5000    0.0000 C.3     1  UNL1       -0.0526
     10 C           4.5981    1.5000    0.0000 C.3     1  UNL1        0.0450
     11 C           6.3301   -1.5000    0.0000 C.3     1  UNL1       -0.0652
     12 C           3.7320    1.0000    0.0000 C.2     1  UNL1        0.3068
     13 C           8.9282    1.0000    0.0000 C.2     1  UNL1        0.3042
     14 C           9.7942    1.5000    0.0000 C.3     1  UNL1        0.0332
     15 C           2.0000    1.0000    0.0000 C.3     1  UNL1        0.0817
     16 H           7.7331    0.6900    0.0000 H       1  UNL1        0.0734
     17 H           6.7287    1.9750    0.0000 H       1  UNL1        0.0301
     18 H           5.9316    1.9750    0.0000 H       1  UNL1        0.0301
     19 H           7.4082   -0.5826    0.0000 H       1  UNL1        0.0301
     20 H           7.8067    0.1077    0.0000 H       1  UNL1        0.0301
     21 H           5.0656    0.5251    0.0000 H       1  UNL1        0.0272
     22 H           5.8626    0.5251    0.0000 H       1  UNL1        0.0272
     23 H           6.1181    0.0826    0.0000 H       1  UNL1        0.0264
     24 H           5.7196   -0.6077    0.0000 H       1  UNL1        0.0264
     25 H           4.9966    1.9750    0.0000 H       1  UNL1        0.0377
     26 H           4.1996    1.9750    0.0000 H       1  UNL1        0.0377
     27 H           5.7101   -1.5000    0.0000 H       1  UNL1        0.0230
     28 H           6.3301   -2.1200    0.0000 H       1  UNL1        0.0230
     29 H           6.9501   -1.5000    0.0000 H       1  UNL1        0.0230
     30 H          10.1042    0.9631    0.0000 H       1  UNL1        0.0342
     31 H          10.3312    1.8100    0.0000 H       1  UNL1        0.0342
     32 H           9.4842    2.0369    0.0000 H       1  UNL1        0.0342
     33 H           1.6900    1.5369    0.0000 H       1  UNL1        0.0661
     34 H           1.4631    0.6900    0.0000 H       1  UNL1        0.0661
     35 H           2.3100    0.4631    0.0000 H       1  UNL1        0.0661
@<TRIPOS>BOND
     1     1     5    1
     2     1    13    1
     3     2    12    1
     4     2    15    1
     5     3    12    2
     6     4    13    2
     7     5     6    1
     8     5     7    1
     9     5    16    1
    10     6     8    1
    11     6    17    1
    12     6    18    1
    13     7     9    1
    14     7    19    1
    15     7    20    1
    16     8    10    1
    17     8    21    1
    18     8    22    1
    19     9    11    1
    20     9    23    1
    21     9    24    1
    22    10    12    1
    23    10    25    1
    24    10    26    1
    25    11    27    1
    26    11    28    1
    27    11    29    1
    28    13    14    1
    29    14    30    1
    30    14    31    1
    31    14    32    1
    32    15    33    1
    33    15    34    1
    34    15    35    1
