@<TRIPOS>MOLECULE
IMPHY013499
 48 50 0 0 0
SMALL
GASTEIGER

@<TRIPOS>ATOM
      1 O           2.5381   -1.8556    0.0000 O.3     1  UNL1       -0.3834
      2 O           2.5381    0.1927    0.0000 O.2     1  UNL1       -0.2946
      3 O           5.1804    1.7000    0.0000 O.2     1  UNL1       -0.5030
      4 O           6.9464    2.7378    0.0000 O.2     1  UNL1       -0.2837
      5 C           5.2022   -0.3314    0.0000 C.3     1  UNL1        0.0256
      6 C           4.3083   -1.8661    0.0000 C.3     1  UNL1        0.0200
      7 C           5.2022   -1.3314    0.0000 C.2     1  UNL1       -0.0503
      8 C           4.3083    0.2032    0.0000 C.3     1  UNL1        0.0217
      9 C           3.4022   -1.3522    0.0000 C.3     1  UNL1        0.1217
     10 C           6.0682    0.1686    0.0000 C.2     1  UNL1        0.0153
     11 C           3.4022   -0.3106    0.0000 C.2     1  UNL1        0.1635
     12 C           5.2022    0.6686    0.0000 C.3     1  UNL1       -0.0512
     13 C           3.8183   -2.7378    0.0000 C.3     1  UNL1       -0.0533
     14 C           4.8183   -2.7263    0.0000 C.3     1  UNL1       -0.0533
     15 C           6.0682   -1.8314    0.0000 C.2     1  UNL1       -0.0605
     16 C           6.9343   -0.3314    0.0000 C.2     1  UNL1       -0.0170
     17 C           6.9343   -1.3314    0.0000 C.2     1  UNL1       -0.0542
     18 C           6.0522    1.2101    0.0000 C.2     1  UNL1        0.1685
     19 C           7.8443    0.1754    0.0000 C.2     1  UNL1       -0.0470
     20 C           7.8523    1.2170    0.0000 C.2     1  UNL1        0.0061
     21 C           6.9502    1.7378    0.0000 C.2     1  UNL1        0.2237
     22 C           8.7202    1.7137    0.0000 C.3     1  UNL1       -0.0178
     23 C           9.5844    1.2104    0.0000 C.3     1  UNL1       -0.0585
     24 C           8.7241    2.7137    0.0000 C.3     1  UNL1       -0.0585
     25 H           4.7129    0.6730    0.0000 H       1  UNL1        0.0354
     26 H           3.9147    0.6823    0.0000 H       1  UNL1        0.0354
     27 H           2.8647   -1.0433    0.0000 H       1  UNL1        0.0681
     28 H           5.8222    0.6686    0.0000 H       1  UNL1        0.0241
     29 H           5.2022    1.2886    0.0000 H       1  UNL1        0.0241
     30 H           4.5822    0.6686    0.0000 H       1  UNL1        0.0241
     31 H           3.2778   -2.4341    0.0000 H       1  UNL1        0.0239
     32 H           3.5146   -3.2783    0.0000 H       1  UNL1        0.0239
     33 H           4.3588   -3.0416    0.0000 H       1  UNL1        0.0239
     34 H           4.2850   -3.0425    0.0000 H       1  UNL1        0.0239
     35 H           5.1344   -3.2596    0.0000 H       1  UNL1        0.0239
     36 H           5.3516   -2.4101    0.0000 H       1  UNL1        0.0239
     37 H           6.0682   -2.4514    0.0000 H       1  UNL1        0.0618
     38 H           7.4712   -1.6414    0.0000 H       1  UNL1        0.0624
     39 H           8.3776   -0.1408    0.0000 H       1  UNL1        0.0628
     40 H           2.0000   -1.5476    0.0000 H       1  UNL1        0.2104
     41 H           8.1845    2.0258    0.0000 H       1  UNL1        0.0345
     42 H           5.1733    2.3200    0.0000 H       1  UNL1        0.2923
     43 H           9.2723    0.6746    0.0000 H       1  UNL1        0.0235
     44 H          10.1201    0.8983    0.0000 H       1  UNL1        0.0235
     45 H           9.8964    1.7461    0.0000 H       1  UNL1        0.0235
     46 H           9.3441    2.7113    0.0000 H       1  UNL1        0.0235
     47 H           8.7265    3.3337    0.0000 H       1  UNL1        0.0235
     48 H           8.1041    2.7161    0.0000 H       1  UNL1        0.0235
@<TRIPOS>BOND
     1     9     1    1
     2     1    40    1
     3     2    11    2
     4     3    18    1
     5     3    42    1
     6     4    21    2
     7     5     7    1
     8     5     8    1
     9     5    10    1
    10     5    12    1
    11     6     7    1
    12     6     9    1
    13     6    13    1
    14     6    14    1
    15     7    15    2
    16     8    11    1
    17     8    25    1
    18     8    26    1
    19     9    11    1
    20     9    27    1
    21    10    16    1
    22    10    18    2
    23    12    28    1
    24    12    29    1
    25    12    30    1
    26    13    31    1
    27    13    32    1
    28    13    33    1
    29    14    34    1
    30    14    35    1
    31    14    36    1
    32    15    17    1
    33    15    37    1
    34    16    17    2
    35    16    19    1
    36    17    38    1
    37    18    21    1
    38    19    20    2
    39    19    39    1
    40    20    21    1
    41    20    22    1
    42    22    23    1
    43    22    24    1
    44    22    41    1
    45    23    43    1
    46    23    44    1
    47    23    45    1
    48    24    46    1
    49    24    47    1
    50    24    48    1
