@<TRIPOS>MOLECULE
IMPHY002078
 56 60 0 0 0
SMALL
GASTEIGER

@<TRIPOS>ATOM
      1 O           9.4781    2.6452    0.0000 O.3     1  UNL1       -0.3917
      2 O           7.6122   -1.5904    0.0000 O.3     1  UNL1       -0.4672
      3 O           5.8804   -0.8603    0.0000 O.2     1  UNL1       -0.2497
      4 O           2.9997   -3.2512    0.0000 O.3     1  UNL1       -0.4950
      5 N           6.7007    1.8215    0.0000 N.3     1  UNL1       -0.2971
      6 N           6.0647   -1.3539    0.0000 N.ar    1  UNL1       -0.3567
      7 C           7.3242    1.0396    0.0000 C.3     1  UNL1        0.0368
      8 C           7.1017    0.0647    0.0000 C.3     1  UNL1        0.1236
      9 C           8.8520   -0.3561    0.0000 C.3     1  UNL1       -0.0264
     10 C           8.3147    1.3620    0.0000 C.3     1  UNL1        0.0021
     11 C           7.8543   -0.6555    0.0000 C.3     1  UNL1       -0.0262
     12 C           9.0837    0.6594    0.0000 C.3     1  UNL1       -0.0424
     13 C           8.4050    1.3537    0.0000 C.3     1  UNL1        0.0021
     14 C           6.2007   -0.3692    0.0000 C.ar    1  UNL1        0.0388
     15 C           5.7007    1.8215    0.0000 C.3     1  UNL1        0.0033
     16 C           8.5260    2.3394    0.0000 C.3     1  UNL1        0.0567
     17 C           6.8792   -0.9102    0.0000 C.2     1  UNL1        0.3205
     18 C           5.2998    0.0647    0.0000 C.ar    1  UNL1       -0.0168
     19 C           5.0772    1.0396    0.0000 C.3     1  UNL1       -0.0126
     20 C           4.6147   -0.6556    0.0000 C.ar    1  UNL1        0.0034
     21 C           7.7851    3.0111    0.0000 C.3     1  UNL1       -0.0386
     22 C           5.0865   -1.5306    0.0000 C.ar    1  UNL1        0.0504
     23 C           3.5802   -0.6096    0.0000 C.ar    1  UNL1       -0.0489
     24 C           4.5566   -2.4202    0.0000 C.ar    1  UNL1        0.0040
     25 C           7.3897   -2.5653    0.0000 C.3     1  UNL1        0.0817
     26 C           3.0299   -1.4866    0.0000 C.ar    1  UNL1       -0.0193
     27 C           3.5214   -2.3980    0.0000 C.ar    1  UNL1        0.1221
     28 C           2.0000   -3.2260    0.0000 C.3     1  UNL1        0.0788
     29 H           7.5134    1.8683    0.0000 H       1  UNL1        0.0481
     30 H           9.0669   -1.1785    0.0000 H       1  UNL1        0.0314
     31 H           9.1245    1.6203    0.0000 H       1  UNL1        0.0341
     32 H           7.3553   -1.0234    0.0000 H       1  UNL1        0.0283
     33 H           8.1314   -1.2101    0.0000 H       1  UNL1        0.0283
     34 H           9.6557    0.4200    0.0000 H       1  UNL1        0.0272
     35 H           9.4174    1.1819    0.0000 H       1  UNL1        0.0272
     36 H           9.0229    1.4040    0.0000 H       1  UNL1        0.0429
     37 H           8.4628    1.9710    0.0000 H       1  UNL1        0.0429
     38 H           5.8387    2.4259    0.0000 H       1  UNL1        0.0430
     39 H           5.1421    2.0905    0.0000 H       1  UNL1        0.0430
     40 H           8.6569    2.9454    0.0000 H       1  UNL1        0.0594
     41 H           4.6907    1.5244    0.0000 H       1  UNL1        0.0326
     42 H           4.5186    0.7706    0.0000 H       1  UNL1        0.0326
     43 H           6.5121   -1.7831    0.0000 H       1  UNL1        0.1656
     44 H           8.2015    3.4704    0.0000 H       1  UNL1        0.0255
     45 H           7.3258    3.4275    0.0000 H       1  UNL1        0.0255
     46 H           7.3687    2.5517    0.0000 H       1  UNL1        0.0255
     47 H           9.6090    3.2512    0.0000 H       1  UNL1        0.2098
     48 H           3.2923   -0.0605    0.0000 H       1  UNL1        0.0625
     49 H           4.8571   -2.9624    0.0000 H       1  UNL1        0.0675
     50 H           6.7853   -2.4274    0.0000 H       1  UNL1        0.0661
     51 H           7.2518   -3.1698    0.0000 H       1  UNL1        0.0661
     52 H           7.9942   -2.7033    0.0000 H       1  UNL1        0.0661
     53 H           2.4102   -1.4662    0.0000 H       1  UNL1        0.0654
     54 H           2.0156   -2.6062    0.0000 H       1  UNL1        0.0660
     55 H           1.3802   -3.2104    0.0000 H       1  UNL1        0.0660
     56 H           1.9844   -3.8458    0.0000 H       1  UNL1        0.0660
@<TRIPOS>BOND
     1    16     1    1
     2     1    47    1
     3     2    17    1
     4     2    25    1
     5     3    17    2
     6     4    27    1
     7     4    28    1
     8     5     7    1
     9     5    13    1
    10     5    15    1
    11     6    14   ar
    12     6    22   ar
    13     6    43    1
    14     7     8    1
    15     7    10    1
    16     7    29    1
    17     8    11    1
    18     8    14    1
    19     8    17    1
    20     9    11    1
    21     9    12    1
    22     9    13    1
    23     9    30    1
    24    10    12    1
    25    10    16    1
    26    10    31    1
    27    11    32    1
    28    11    33    1
    29    12    34    1
    30    12    35    1
    31    13    36    1
    32    13    37    1
    33    14    18   ar
    34    15    19    1
    35    15    38    1
    36    15    39    1
    37    16    21    1
    38    16    40    1
    39    18    19    1
    40    18    20   ar
    41    19    41    1
    42    19    42    1
    43    20    22   ar
    44    20    23   ar
    45    21    44    1
    46    21    45    1
    47    21    46    1
    48    22    24   ar
    49    23    26   ar
    50    23    48    1
    51    24    27   ar
    52    24    49    1
    53    25    50    1
    54    25    51    1
    55    25    52    1
    56    26    27   ar
    57    26    53    1
    58    28    54    1
    59    28    55    1
    60    28    56    1
