@<TRIPOS>MOLECULE
IMPHY004140
 62 67 0 0 0
SMALL
GASTEIGER

@<TRIPOS>ATOM
      1 O           5.6993   -1.0603    0.0000 O.3     1  UNL1       -0.3512
      2 O           8.3939   -1.6020    0.0000 O.3     1  UNL1       -0.4539
      3 O           4.8614   -1.5881    0.0000 O.2     1  UNL1       -0.2967
      4 O           7.4879   -3.1228    0.0000 O.2     1  UNL1       -0.2478
      5 O           2.1359    3.0909    0.0000 O.2     1  UNL1       -0.2921
      6 O          10.3147    1.1645    0.0000 O.2     1  UNL1       -0.4706
      7 C           6.6098   -0.5535    0.0000 C.3     1  UNL1        0.1283
      8 C           5.7438   -0.0535    0.0000 C.3     1  UNL1        0.0623
      9 C           7.4758   -0.0535    0.0000 C.3     1  UNL1        0.0422
     10 C           5.7438    0.9465    0.0000 C.3     1  UNL1       -0.0170
     11 C           6.5938   -1.5950    0.0000 C.3     1  UNL1        0.1861
     12 C           4.8498    1.4812    0.0000 C.3     1  UNL1       -0.0058
     13 C           7.4758    0.9465    0.0000 C.3     1  UNL1       -0.0408
     14 C           6.6098    1.4465    0.0000 C.3     1  UNL1       -0.0477
     15 C           3.9438    0.9673    0.0000 C.3     1  UNL1       -0.0131
     16 C           8.3858   -0.5604    0.0000 C.3     1  UNL1        0.1391
     17 C           4.8498   -0.5882    0.0000 C.2     1  UNL1        0.1427
     18 C           6.3939   -1.1793    0.0000 C.3     1  UNL1       -0.0497
     19 C           3.9438   -0.0743    0.0000 C.3     1  UNL1        0.0110
     20 C           8.3419    0.4465    0.0000 C.3     1  UNL1       -0.0531
     21 C           7.4918   -2.1228    0.0000 C.2     1  UNL1        0.3398
     22 C           3.0000    1.5025    0.0000 C.3     1  UNL1        0.0314
     23 C           5.7197    1.9744    0.0000 C.3     1  UNL1       -0.0555
     24 C           4.8749    2.5659    0.0000 C.2     1  UNL1       -0.0742
     25 C           9.2460   -0.0504    0.0000 C.ar    1  UNL1        0.0310
     26 C           3.0000    2.5875    0.0000 C.2     1  UNL1        0.1617
     27 C           3.9438    3.1228    0.0000 C.2     1  UNL1       -0.0221
     28 C           2.0000    1.4987    0.0000 C.3     1  UNL1       -0.0525
     29 C           2.5033    0.6346    0.0000 C.3     1  UNL1       -0.0525
     30 C          10.1642   -0.4465    0.0000 C.ar    1  UNL1       -0.0172
     31 C           9.3390    0.9453    0.0000 C.ar    1  UNL1        0.0984
     32 C          10.8247    0.3043    0.0000 C.ar    1  UNL1        0.0921
     33 H           6.2807    0.6365    0.0000 H       1  UNL1        0.0319
     34 H           6.1604   -2.3262    0.0000 H       1  UNL1        0.0743
     35 H           8.0864    0.8388    0.0000 H       1  UNL1        0.0273
     36 H           7.6879    1.5291    0.0000 H       1  UNL1        0.0273
     37 H           7.0083    1.9214    0.0000 H       1  UNL1        0.0269
     38 H           6.2113    1.9214    0.0000 H       1  UNL1        0.0269
     39 H           3.2093    0.5395    0.0000 H       1  UNL1        0.0322
     40 H           8.9257   -0.8652    0.0000 H       1  UNL1        0.0793
     41 H           5.8570   -1.4893    0.0000 H       1  UNL1        0.0240
     42 H           6.7040   -1.7162    0.0000 H       1  UNL1        0.0240
     43 H           6.9308   -0.8692    0.0000 H       1  UNL1        0.0240
     44 H           3.3329    0.0318    0.0000 H       1  UNL1        0.0345
     45 H           3.7347   -0.6580    0.0000 H       1  UNL1        0.0345
     46 H           8.6519   -0.0905    0.0000 H       1  UNL1        0.0237
     47 H           8.8788    0.7565    0.0000 H       1  UNL1        0.0237
     48 H           8.0319    0.9834    0.0000 H       1  UNL1        0.0237
     49 H           6.0256    1.4351    0.0000 H       1  UNL1        0.0238
     50 H           6.2590    2.2803    0.0000 H       1  UNL1        0.0238
     51 H           5.4138    2.5138    0.0000 H       1  UNL1        0.0238
     52 H           5.4178    2.8654    0.0000 H       1  UNL1        0.0579
     53 H           3.9510    3.7427    0.0000 H       1  UNL1        0.0649
     54 H           1.9976    2.1187    0.0000 H       1  UNL1        0.0239
     55 H           1.3800    1.4963    0.0000 H       1  UNL1        0.0239
     56 H           2.0024    0.8787    0.0000 H       1  UNL1        0.0239
     57 H           1.9652    0.9425    0.0000 H       1  UNL1        0.0239
     58 H           2.1954    0.0965    0.0000 H       1  UNL1        0.0239
     59 H           3.0415    0.3267    0.0000 H       1  UNL1        0.0239
     60 H          10.3001   -1.0514    0.0000 H       1  UNL1        0.0653
     61 H           8.8735    1.3548    0.0000 H       1  UNL1        0.1033
     62 H          11.4420    0.2466    0.0000 H       1  UNL1        0.1029
@<TRIPOS>BOND
     1     7     1    1
     2     1    11    1
     3     2    16    1
     4     2    21    1
     5     3    17    2
     6     4    21    2
     7     5    26    2
     8     6    31   ar
     9     6    32   ar
    10     7     8    1
    11     7     9    1
    12     7    11    1
    13     8    10    1
    14     8    17    1
    15     8    18    1
    16     9    13    1
    17     9    16    1
    18     9    20    1
    19    10    12    1
    20    10    14    1
    21    10    33    1
    22    11    21    1
    23    11    34    1
    24    12    15    1
    25    12    23    1
    26    12    24    1
    27    13    14    1
    28    13    35    1
    29    13    36    1
    30    14    37    1
    31    14    38    1
    32    15    19    1
    33    15    22    1
    34    15    39    1
    35    16    25    1
    36    16    40    1
    37    17    19    1
    38    18    41    1
    39    18    42    1
    40    18    43    1
    41    19    44    1
    42    19    45    1
    43    20    46    1
    44    20    47    1
    45    20    48    1
    46    22    26    1
    47    22    28    1
    48    22    29    1
    49    23    49    1
    50    23    50    1
    51    23    51    1
    52    24    27    2
    53    24    52    1
    54    25    30   ar
    55    25    31   ar
    56    26    27    1
    57    27    53    1
    58    28    54    1
    59    28    55    1
    60    28    56    1
    61    29    57    1
    62    29    58    1
    63    29    59    1
    64    30    32   ar
    65    30    60    1
    66    31    61    1
    67    32    62    1
