@<TRIPOS>MOLECULE
IMPHY015860
 50 49 0 0 0
SMALL
GASTEIGER

@<TRIPOS>ATOM
      1 O          10.6603    0.1340    0.0000 O.3     1  UNL1       -0.4542
      2 O          11.5263   -1.3660    0.0000 O.2     1  UNL1       -0.2508
      3 C           9.7942   -0.3660    0.0000 C.3     1  UNL1        0.1289
      4 C           8.9282   -0.8660    0.0000 C.3     1  UNL1       -0.0060
      5 C           8.0622   -0.3660    0.0000 C.3     1  UNL1       -0.0306
      6 C          10.2942   -1.2320    0.0000 C.3     1  UNL1       -0.0211
      7 C           7.1962   -0.8660    0.0000 C.2     1  UNL1       -0.0849
      8 C           6.3301   -0.3660    0.0000 C.2     1  UNL1       -0.0762
      9 C           9.2942    0.5000    0.0000 C.2     1  UNL1       -0.0483
     10 C           5.4641   -0.8660    0.0000 C.3     1  UNL1       -0.0286
     11 C           4.5981   -0.3660    0.0000 C.3     1  UNL1       -0.0308
     12 C           6.3301    0.6340    0.0000 C.3     1  UNL1       -0.0438
     13 C          11.5263   -0.3660    0.0000 C.2     1  UNL1        0.3076
     14 C           9.7942    1.3660    0.0000 C.2     1  UNL1       -0.0989
     15 C           3.7320   -0.8660    0.0000 C.2     1  UNL1       -0.0850
     16 C          12.3923    0.1340    0.0000 C.3     1  UNL1        0.0421
     17 C           2.8660   -0.3660    0.0000 C.2     1  UNL1       -0.0796
     18 C          13.2583   -0.3660    0.0000 C.3     1  UNL1       -0.0552
     19 C           2.0000   -0.8660    0.0000 C.3     1  UNL1       -0.0440
     20 C           2.8660    0.6340    0.0000 C.3     1  UNL1       -0.0440
     21 H           8.5297   -1.3410    0.0000 H       1  UNL1        0.0310
     22 H           9.3267   -1.3410    0.0000 H       1  UNL1        0.0310
     23 H           8.4607    0.1089    0.0000 H       1  UNL1        0.0309
     24 H           7.6636    0.1089    0.0000 H       1  UNL1        0.0309
     25 H           9.7573   -1.5420    0.0000 H       1  UNL1        0.0271
     26 H          10.6042   -1.7690    0.0000 H       1  UNL1        0.0271
     27 H          10.8312   -0.9221    0.0000 H       1  UNL1        0.0271
     28 H           7.1962   -1.4860    0.0000 H       1  UNL1        0.0572
     29 H           8.6742    0.5000    0.0000 H       1  UNL1        0.0605
     30 H           5.0656   -1.3410    0.0000 H       1  UNL1        0.0313
     31 H           5.8626   -1.3410    0.0000 H       1  UNL1        0.0313
     32 H           4.9966    0.1089    0.0000 H       1  UNL1        0.0310
     33 H           4.1996    0.1089    0.0000 H       1  UNL1        0.0310
     34 H           6.9501    0.6340    0.0000 H       1  UNL1        0.0274
     35 H           6.3301    1.2540    0.0000 H       1  UNL1        0.0274
     36 H           5.7101    0.6340    0.0000 H       1  UNL1        0.0274
     37 H           3.7320   -1.4860    0.0000 H       1  UNL1        0.0572
     38 H          10.4142    1.3660    0.0000 H       1  UNL1        0.0533
     39 H           9.4842    1.9030    0.0000 H       1  UNL1        0.0533
     40 H          12.7908    0.6089    0.0000 H       1  UNL1        0.0375
     41 H          11.9938    0.6089    0.0000 H       1  UNL1        0.0375
     42 H          12.9483   -0.9030    0.0000 H       1  UNL1        0.0235
     43 H          13.7953   -0.6760    0.0000 H       1  UNL1        0.0235
     44 H          13.5683    0.1709    0.0000 H       1  UNL1        0.0235
     45 H           1.6900   -0.3291    0.0000 H       1  UNL1        0.0274
     46 H           1.4631   -1.1760    0.0000 H       1  UNL1        0.0274
     47 H           2.3100   -1.4030    0.0000 H       1  UNL1        0.0274
     48 H           3.4860    0.6340    0.0000 H       1  UNL1        0.0274
     49 H           2.8660    1.2540    0.0000 H       1  UNL1        0.0274
     50 H           2.2460    0.6340    0.0000 H       1  UNL1        0.0274
@<TRIPOS>BOND
     1     1     3    1
     2     1    13    1
     3     2    13    2
     4     3     4    1
     5     3     6    1
     6     3     9    1
     7     4     5    1
     8     4    21    1
     9     4    22    1
    10     5     7    1
    11     5    23    1
    12     5    24    1
    13     6    25    1
    14     6    26    1
    15     6    27    1
    16     7     8    2
    17     7    28    1
    18     8    10    1
    19     8    12    1
    20     9    14    2
    21     9    29    1
    22    10    11    1
    23    10    30    1
    24    10    31    1
    25    11    15    1
    26    11    32    1
    27    11    33    1
    28    12    34    1
    29    12    35    1
    30    12    36    1
    31    13    16    1
    32    14    38    1
    33    14    39    1
    34    15    17    2
    35    15    37    1
    36    16    18    1
    37    16    40    1
    38    16    41    1
    39    17    19    1
    40    17    20    1
    41    18    42    1
    42    18    43    1
    43    18    44    1
    44    19    45    1
    45    19    46    1
    46    19    47    1
    47    20    48    1
    48    20    49    1
    49    20    50    1
