@<TRIPOS>MOLECULE
IMPHY017597
 40 41 0 0 0
SMALL
GASTEIGER

@<TRIPOS>ATOM
      1 O           7.2566    2.0144    0.0000 O.3     1  UNL1       -0.3907
      2 C           3.7320   -1.6038    0.0000 C.3     1  UNL1       -0.0250
      3 C           3.7320   -0.6038    0.0000 C.3     1  UNL1       -0.0085
      4 C           4.6783   -0.2990    0.0000 C.3     1  UNL1       -0.0156
      5 C           4.6783   -1.9085    0.0000 C.3     1  UNL1       -0.0465
      6 C           5.2619   -1.1038    0.0000 C.3     1  UNL1       -0.0457
      7 C           2.8660   -2.1038    0.0000 C.3     1  UNL1       -0.0468
      8 C           2.8660   -0.1038    0.0000 C.2     1  UNL1       -0.0725
      9 C           2.0000   -1.6038    0.0000 C.3     1  UNL1       -0.0489
     10 C           3.7320   -2.6038    0.0000 C.3     1  UNL1       -0.0590
     11 C           2.0000   -0.6038    0.0000 C.3     1  UNL1       -0.0317
     12 C           4.9889    0.6515    0.0000 C.2     1  UNL1       -0.0792
     13 C           2.8660    0.8962    0.0000 C.2     1  UNL1       -0.0991
     14 C           5.9674    0.8577    0.0000 C.2     1  UNL1       -0.0512
     15 C           6.2781    1.8082    0.0000 C.3     1  UNL1        0.0651
     16 C           6.6353    0.1134    0.0000 C.3     1  UNL1       -0.0416
     17 H           3.7977    0.0128    0.0000 H       1  UNL1        0.0356
     18 H           5.2908   -0.2028    0.0000 H       1  UNL1        0.0349
     19 H           4.4272   -2.4754    0.0000 H       1  UNL1        0.0271
     20 H           5.2156   -2.2177    0.0000 H       1  UNL1        0.0271
     21 H           5.7227   -1.5185    0.0000 H       1  UNL1        0.0271
     22 H           5.7227   -0.6890    0.0000 H       1  UNL1        0.0271
     23 H           2.4675   -2.5787    0.0000 H       1  UNL1        0.0271
     24 H           3.2646   -2.5787    0.0000 H       1  UNL1        0.0271
     25 H           1.3894   -1.4961    0.0000 H       1  UNL1        0.0268
     26 H           1.7880   -2.1864    0.0000 H       1  UNL1        0.0268
     27 H           3.1120   -2.6038    0.0000 H       1  UNL1        0.0235
     28 H           3.7320   -3.2238    0.0000 H       1  UNL1        0.0235
     29 H           4.3520   -2.6038    0.0000 H       1  UNL1        0.0235
     30 H           1.7880   -0.0212    0.0000 H       1  UNL1        0.0310
     31 H           1.3894   -0.7114    0.0000 H       1  UNL1        0.0310
     32 H           4.5749    1.1130    0.0000 H       1  UNL1        0.0575
     33 H           3.4030    1.2062    0.0000 H       1  UNL1        0.0534
     34 H           2.3291    1.2062    0.0000 H       1  UNL1        0.0534
     35 H           6.2575    2.4279    0.0000 H       1  UNL1        0.0604
     36 H           5.6643    1.8956    0.0000 H       1  UNL1        0.0604
     37 H           6.1738   -0.3007    0.0000 H       1  UNL1        0.0275
     38 H           7.0494   -0.3481    0.0000 H       1  UNL1        0.0275
     39 H           7.0968    0.5275    0.0000 H       1  UNL1        0.0275
     40 H           7.4492    2.6038    0.0000 H       1  UNL1        0.2098
@<TRIPOS>BOND
     1     1    15    1
     2     1    40    1
     3     2     3    1
     4     2     5    1
     5     2     7    1
     6     2    10    1
     7     3     4    1
     8     3     8    1
     9     3    17    1
    10     4     6    1
    11     4    12    1
    12     4    18    1
    13     5     6    1
    14     5    19    1
    15     5    20    1
    16     6    21    1
    17     6    22    1
    18     7     9    1
    19     7    23    1
    20     7    24    1
    21     8    11    1
    22     8    13    2
    23     9    11    1
    24     9    25    1
    25     9    26    1
    26    10    27    1
    27    10    28    1
    28    10    29    1
    29    11    30    1
    30    11    31    1
    31    12    14    2
    32    12    32    1
    33    13    33    1
    34    13    34    1
    35    14    15    1
    36    14    16    1
    37    15    35    1
    38    15    36    1
    39    16    37    1
    40    16    38    1
    41    16    39    1
