@<TRIPOS>MOLECULE
IMPHY017551
 21 21 0 0 0
SMALL
GASTEIGER

@<TRIPOS>ATOM
      1 O           4.5981    1.7500    0.0000 O.3     1  UNL1       -0.4644
      2 O           2.8660    1.7500    0.0000 O.2     1  UNL1       -0.2449
      3 N           4.5981   -1.2500    0.0000 N.ar    1  UNL1       -0.2619
      4 C           3.7320    0.2500    0.0000 C.ar    1  UNL1        0.0776
      5 C           2.8660   -1.2500    0.0000 C.ar    1  UNL1       -0.0067
      6 C           2.8660   -0.2500    0.0000 C.ar    1  UNL1       -0.0377
      7 C           4.5981   -0.2500    0.0000 C.ar    1  UNL1        0.0416
      8 C           3.7320   -1.7500    0.0000 C.ar    1  UNL1        0.0347
      9 C           3.7320    1.2500    0.0000 C.2     1  UNL1        0.3404
     10 C           2.0000   -1.7500    0.0000 C.2     1  UNL1       -0.0602
     11 C           4.5981    2.7500    0.0000 C.3     1  UNL1        0.0820
     12 C           2.0000   -2.7500    0.0000 C.2     1  UNL1       -0.0981
     13 H           2.3291    0.0600    0.0000 H       1  UNL1        0.0632
     14 H           5.1350    0.0600    0.0000 H       1  UNL1        0.0838
     15 H           3.7320   -2.3700    0.0000 H       1  UNL1        0.0835
     16 H           1.4631   -1.4400    0.0000 H       1  UNL1        0.0618
     17 H           5.2181    2.7500    0.0000 H       1  UNL1        0.0661
     18 H           4.5981    3.3700    0.0000 H       1  UNL1        0.0661
     19 H           3.9781    2.7500    0.0000 H       1  UNL1        0.0661
     20 H           1.4631   -3.0600    0.0000 H       1  UNL1        0.0535
     21 H           2.5369   -3.0600    0.0000 H       1  UNL1        0.0535
@<TRIPOS>BOND
     1     1     9    1
     2     1    11    1
     3     2     9    2
     4     3     7   ar
     5     3     8   ar
     6     4     6   ar
     7     4     7   ar
     8     4     9    1
     9     5     6   ar
    10     5     8   ar
    11     5    10    1
    12     6    13    1
    13     7    14    1
    14     8    15    1
    15    10    12    2
    16    10    16    1
    17    11    17    1
    18    11    18    1
    19    11    19    1
    20    12    20    1
    21    12    21    1
