@<TRIPOS>MOLECULE
IMPHY008417
 41 44 0 0 0
SMALL
GASTEIGER

@<TRIPOS>ATOM
      1 O           6.3301    3.0000    0.0000 O.2     1  UNL1       -0.2853
      2 N           4.5981    2.0000    0.0000 N.pl3   1  UNL1       -0.3114
      3 N           6.3301   -1.0000    0.0000 N.2     1  UNL1       -0.2472
      4 C           7.1962    0.5000    0.0000 C.ar    1  UNL1        0.0113
      5 C           7.1962    1.5000    0.0000 C.ar    1  UNL1        0.0327
      6 C           6.3301    0.0000    0.0000 C.2     1  UNL1        0.0742
      7 C           5.4641    1.5000    0.0000 C.2     1  UNL1        0.0813
      8 C           6.3301    2.0000    0.0000 C.2     1  UNL1        0.2077
      9 C           5.4641    0.5000    0.0000 C.2     1  UNL1       -0.0107
     10 C           8.0901   -0.0347    0.0000 C.ar    1  UNL1       -0.0519
     11 C           8.0901    2.0347    0.0000 C.ar    1  UNL1       -0.0502
     12 C           8.9962    0.4792    0.0000 C.ar    1  UNL1       -0.0611
     13 C           8.9962    1.5208    0.0000 C.ar    1  UNL1       -0.0610
     14 C           3.7320    1.5000    0.0000 C.ar    1  UNL1        0.0314
     15 C           5.4641   -1.5000    0.0000 C.ar    1  UNL1        0.0645
     16 C           2.8660    2.0000    0.0000 C.ar    1  UNL1       -0.0405
     17 C           3.7320    0.5000    0.0000 C.ar    1  UNL1       -0.0405
     18 C           4.5981   -1.0000    0.0000 C.ar    1  UNL1       -0.0363
     19 C           5.4641   -2.5000    0.0000 C.ar    1  UNL1       -0.0363
     20 C           2.0000    1.5000    0.0000 C.ar    1  UNL1       -0.0600
     21 C           2.8660    0.0000    0.0000 C.ar    1  UNL1       -0.0600
     22 C           2.0000    0.5000    0.0000 C.ar    1  UNL1       -0.0616
     23 C           3.7320   -1.5000    0.0000 C.ar    1  UNL1       -0.0598
     24 C           4.5981   -3.0000    0.0000 C.ar    1  UNL1       -0.0598
     25 C           3.7320   -2.5000    0.0000 C.ar    1  UNL1       -0.0616
     26 H           4.9272    0.1900    0.0000 H       1  UNL1        0.0659
     27 H           8.0829   -0.6546    0.0000 H       1  UNL1        0.0624
     28 H           8.0829    2.6546    0.0000 H       1  UNL1        0.0625
     29 H           4.5981    2.6200    0.0000 H       1  UNL1        0.1523
     30 H           9.5319    0.1671    0.0000 H       1  UNL1        0.0618
     31 H           9.5319    1.8329    0.0000 H       1  UNL1        0.0618
     32 H           2.8660    2.6200    0.0000 H       1  UNL1        0.0636
     33 H           4.2690    0.1900    0.0000 H       1  UNL1        0.0636
     34 H           4.5981   -0.3800    0.0000 H       1  UNL1        0.0639
     35 H           6.0010   -2.8100    0.0000 H       1  UNL1        0.0639
     36 H           1.4631    1.8100    0.0000 H       1  UNL1        0.0618
     37 H           2.8660   -0.6200    0.0000 H       1  UNL1        0.0618
     38 H           1.4631    0.1900    0.0000 H       1  UNL1        0.0618
     39 H           3.1951   -1.1900    0.0000 H       1  UNL1        0.0618
     40 H           4.5981   -3.6200    0.0000 H       1  UNL1        0.0618
     41 H           3.1951   -2.8100    0.0000 H       1  UNL1        0.0618
@<TRIPOS>BOND
     1     1     8    2
     2     2     7    1
     3     2    14    1
     4     2    29    1
     5     3     6    2
     6     3    15    1
     7     4     5   ar
     8     4     6    1
     9     4    10   ar
    10     5     8    1
    11     5    11   ar
    12     6     9    1
    13     7     8    1
    14     7     9    2
    15     9    26    1
    16    10    12   ar
    17    10    27    1
    18    11    13   ar
    19    11    28    1
    20    12    13   ar
    21    12    30    1
    22    13    31    1
    23    14    16   ar
    24    14    17   ar
    25    15    18   ar
    26    15    19   ar
    27    16    20   ar
    28    16    32    1
    29    17    21   ar
    30    17    33    1
    31    18    23   ar
    32    18    34    1
    33    19    24   ar
    34    19    35    1
    35    20    22   ar
    36    20    36    1
    37    21    22   ar
    38    21    37    1
    39    22    38    1
    40    23    25   ar
    41    23    39    1
    42    24    25   ar
    43    24    40    1
    44    25    41    1
