@<TRIPOS>MOLECULE
IMPHY011911
 86 89 0 0 0
SMALL
GASTEIGER

@<TRIPOS>ATOM
      1 O          10.4473   -1.2518    0.0000 O.3     1  UNL1       -0.3914
      2 O           5.3194   -0.2518    0.0000 O.2     1  UNL1       -0.2968
      3 O          10.1248    0.1928    0.0000 O.3     1  UNL1       -0.3806
      4 O           2.5405   -1.7126    0.0000 O.3     1  UNL1       -0.3842
      5 O           8.8172    2.1982    0.0000 O.2     1  UNL1       -0.2896
      6 O           2.5244   -3.8042    0.0000 O.2     1  UNL1       -0.2937
      7 O          12.7312    3.0231    0.0000 O.3     1  UNL1       -0.4546
      8 O          12.3740    4.7179    0.0000 O.2     1  UNL1       -0.2511
      9 C           7.9174   -1.7518    0.0000 C.3     1  UNL1       -0.0195
     10 C           7.9174   -0.7518    0.0000 C.3     1  UNL1       -0.0114
     11 C           7.0514   -2.2518    0.0000 C.3     1  UNL1       -0.0190
     12 C           6.1854   -1.7518    0.0000 C.3     1  UNL1        0.0364
     13 C           8.8637   -0.4471    0.0000 C.3     1  UNL1        0.0271
     14 C           8.8637   -2.0566    0.0000 C.3     1  UNL1       -0.0202
     15 C           9.4473   -1.2518    0.0000 C.3     1  UNL1        0.0621
     16 C           7.0514   -0.2518    0.0000 C.3     1  UNL1        0.0127
     17 C           5.2754   -2.2587    0.0000 C.3     1  UNL1       -0.0039
     18 C           6.1854   -0.7518    0.0000 C.2     1  UNL1        0.1406
     19 C           7.0675   -3.2933    0.0000 C.3     1  UNL1       -0.0302
     20 C           7.9174   -2.7518    0.0000 C.3     1  UNL1       -0.0587
     21 C           7.9174    0.2482    0.0000 C.3     1  UNL1       -0.0582
     22 C           9.1743    0.5034    0.0000 C.3     1  UNL1        0.1304
     23 C           5.2674   -3.3003    0.0000 C.2     1  UNL1       -0.0565
     24 C           5.3194   -1.2518    0.0000 C.3     1  UNL1       -0.0520
     25 C           4.3486   -1.6946    0.0000 C.3     1  UNL1       -0.0124
     26 C           6.1694   -3.8211    0.0000 C.2     1  UNL1       -0.0832
     27 C           4.3319   -3.8500    0.0000 C.3     1  UNL1        0.0471
     28 C           3.4007   -2.2225    0.0000 C.3     1  UNL1        0.1144
     29 C           8.2238    0.8141    0.0000 C.3     1  UNL1       -0.0284
     30 C           9.4850    1.4540    0.0000 C.2     1  UNL1        0.1873
     31 C           3.3923   -3.3075    0.0000 C.2     1  UNL1        0.1710
     32 C           3.8353   -4.7179    0.0000 C.3     1  UNL1       -0.0492
     33 C           4.8353   -4.7141    0.0000 C.3     1  UNL1       -0.0492
     34 C          10.4635    1.6602    0.0000 C.2     1  UNL1       -0.0165
     35 C          10.7742    2.6107    0.0000 C.2     1  UNL1       -0.0381
     36 C          11.7527    2.8169    0.0000 C.3     1  UNL1        0.1264
     37 C          11.5464    3.7954    0.0000 C.3     1  UNL1       -0.0214
     38 C          11.9589    1.8384    0.0000 C.3     1  UNL1       -0.0214
     39 C          13.0418    3.9736    0.0000 C.2     1  UNL1        0.3047
     40 C          14.0203    4.1799    0.0000 C.3     1  UNL1        0.0333
     41 H           7.7908   -2.6711    0.0000 H       1  UNL1        0.0319
     42 H           8.2639    0.1552    0.0000 H       1  UNL1        0.0363
     43 H           8.6126   -2.6235    0.0000 H       1  UNL1        0.0296
     44 H           9.4010   -2.3658    0.0000 H       1  UNL1        0.0296
     45 H           9.7290   -1.8041    0.0000 H       1  UNL1        0.0597
     46 H           7.4500    0.2231    0.0000 H       1  UNL1        0.0347
     47 H           6.6529    0.2231    0.0000 H       1  UNL1        0.0347
     48 H           6.0066   -2.6922    0.0000 H       1  UNL1        0.0356
     49 H           7.2855   -3.8737    0.0000 H       1  UNL1        0.0311
     50 H           7.6766   -3.1778    0.0000 H       1  UNL1        0.0311
     51 H           7.2974   -2.7518    0.0000 H       1  UNL1        0.0235
     52 H           7.9174   -3.3718    0.0000 H       1  UNL1        0.0235
     53 H           8.5374   -2.7518    0.0000 H       1  UNL1        0.0235
     54 H           8.5374    0.2482    0.0000 H       1  UNL1        0.0235
     55 H           7.9174    0.8682    0.0000 H       1  UNL1        0.0235
     56 H           7.2974    0.2482    0.0000 H       1  UNL1        0.0235
     57 H           5.6294   -0.7149    0.0000 H       1  UNL1        0.0239
     58 H           4.7824   -0.9418    0.0000 H       1  UNL1        0.0239
     59 H           5.0094   -1.7888    0.0000 H       1  UNL1        0.0239
     60 H           4.7568   -1.2279    0.0000 H       1  UNL1        0.0300
     61 H           3.9586   -1.2126    0.0000 H       1  UNL1        0.0300
     62 H           6.1718   -4.4411    0.0000 H       1  UNL1        0.0572
     63 H           2.8608   -2.5274    0.0000 H       1  UNL1        0.0673
     64 H          10.7573   -1.7888    0.0000 H       1  UNL1        0.2098
     65 H           8.4164    1.4034    0.0000 H       1  UNL1        0.0262
     66 H           7.6345    1.0067    0.0000 H       1  UNL1        0.0262
     67 H           8.0312    0.2248    0.0000 H       1  UNL1        0.0262
     68 H          10.5863    0.6068    0.0000 H       1  UNL1        0.2108
     69 H           3.2972   -4.4100    0.0000 H       1  UNL1        0.0242
     70 H           3.5274   -5.2561    0.0000 H       1  UNL1        0.0242
     71 H           4.3734   -5.0259    0.0000 H       1  UNL1        0.0242
     72 H           4.2995   -5.0262    0.0000 H       1  UNL1        0.0242
     73 H           5.1473   -5.2498    0.0000 H       1  UNL1        0.0242
     74 H           5.3710   -4.4020    0.0000 H       1  UNL1        0.0242
     75 H          10.8776    1.1987    0.0000 H       1  UNL1        0.0651
     76 H           2.0000   -2.0163    0.0000 H       1  UNL1        0.2104
     77 H          10.3601    3.0722    0.0000 H       1  UNL1        0.0612
     78 H          12.1531    3.9233    0.0000 H       1  UNL1        0.0271
     79 H          11.4186    4.4021    0.0000 H       1  UNL1        0.0271
     80 H          10.9398    3.6676    0.0000 H       1  UNL1        0.0271
     81 H          11.3522    1.7105    0.0000 H       1  UNL1        0.0271
     82 H          12.0867    1.2317    0.0000 H       1  UNL1        0.0271
     83 H          12.5656    1.9662    0.0000 H       1  UNL1        0.0271
     84 H          14.1482    3.5732    0.0000 H       1  UNL1        0.0342
     85 H          14.6270    4.3077    0.0000 H       1  UNL1        0.0342
     86 H          13.8925    4.7865    0.0000 H       1  UNL1        0.0342
@<TRIPOS>BOND
     1    15     1    1
     2     1    64    1
     3     2    18    2
     4    22     3    1
     5     3    68    1
     6    28     4    1
     7     4    76    1
     8     5    30    2
     9     6    31    2
    10     7    36    1
    11     7    39    1
    12     8    39    2
    13     9    10    1
    14     9    11    1
    15     9    14    1
    16     9    20    1
    17    10    13    1
    18    10    16    1
    19    10    21    1
    20    11    12    1
    21    11    19    1
    22    11    41    1
    23    12    17    1
    24    12    18    1
    25    12    24    1
    26    13    15    1
    27    13    22    1
    28    13    42    1
    29    14    15    1
    30    14    43    1
    31    14    44    1
    32    15    45    1
    33    16    18    1
    34    16    46    1
    35    16    47    1
    36    17    23    1
    37    17    25    1
    38    17    48    1
    39    19    26    1
    40    19    49    1
    41    19    50    1
    42    20    51    1
    43    20    52    1
    44    20    53    1
    45    21    54    1
    46    21    55    1
    47    21    56    1
    48    22    29    1
    49    22    30    1
    50    23    26    2
    51    23    27    1
    52    24    57    1
    53    24    58    1
    54    24    59    1
    55    25    28    1
    56    25    60    1
    57    25    61    1
    58    26    62    1
    59    27    31    1
    60    27    32    1
    61    27    33    1
    62    28    31    1
    63    28    63    1
    64    29    65    1
    65    29    66    1
    66    29    67    1
    67    30    34    1
    68    32    69    1
    69    32    70    1
    70    32    71    1
    71    33    72    1
    72    33    73    1
    73    33    74    1
    74    34    35    2
    75    34    75    1
    76    35    36    1
    77    35    77    1
    78    36    37    1
    79    36    38    1
    80    37    78    1
    81    37    79    1
    82    37    80    1
    83    38    81    1
    84    38    82    1
    85    38    83    1
    86    39    40    1
    87    40    84    1
    88    40    85    1
    89    40    86    1
