@<TRIPOS>MOLECULE
IMPHY004785
 34 34 0 0 0
SMALL
GASTEIGER

@<TRIPOS>ATOM
      1 O           2.8660    0.2500    0.0000 O.3     1  UNL1       -0.4942
      2 O           6.3301    0.2500    0.0000 O.3     1  UNL1       -0.4942
      3 O           4.5981   -2.7500    0.0000 O.3     1  UNL1       -0.4949
      4 O           3.7320    1.7500    0.0000 O.2     1  UNL1       -0.2914
      5 O           4.5981    3.2500    0.0000 O.2     1  UNL1       -0.2972
      6 C           4.5981    0.2500    0.0000 C.ar    1  UNL1        0.1011
      7 C           3.7320   -0.2500    0.0000 C.ar    1  UNL1        0.1376
      8 C           5.4641   -0.2500    0.0000 C.ar    1  UNL1        0.1376
      9 C           4.5981    1.2500    0.0000 C.2     1  UNL1        0.1773
     10 C           5.4641    1.7500    0.0000 C.3     1  UNL1        0.0689
     11 C           3.7320   -1.2500    0.0000 C.ar    1  UNL1        0.0227
     12 C           5.4641   -1.2500    0.0000 C.ar    1  UNL1        0.0227
     13 C           4.5981   -1.7500    0.0000 C.ar    1  UNL1        0.1271
     14 C           5.4641    2.7500    0.0000 C.2     1  UNL1        0.1377
     15 C           6.3301    3.2500    0.0000 C.3     1  UNL1       -0.0056
     16 C           2.0000   -0.2500    0.0000 C.3     1  UNL1        0.0788
     17 C           7.1962   -0.2500    0.0000 C.3     1  UNL1        0.0788
     18 C           3.7320   -3.2500    0.0000 C.3     1  UNL1        0.0788
     19 H           5.6762    1.1674    0.0000 H       1  UNL1        0.0422
     20 H           6.0747    1.8577    0.0000 H       1  UNL1        0.0422
     21 H           3.1951   -1.5600    0.0000 H       1  UNL1        0.0691
     22 H           6.0010   -1.5600    0.0000 H       1  UNL1        0.0691
     23 H           6.6401    2.7131    0.0000 H       1  UNL1        0.0306
     24 H           6.8671    3.5600    0.0000 H       1  UNL1        0.0306
     25 H           6.0201    3.7869    0.0000 H       1  UNL1        0.0306
     26 H           1.6900    0.2869    0.0000 H       1  UNL1        0.0660
     27 H           1.4631   -0.5600    0.0000 H       1  UNL1        0.0660
     28 H           2.3100   -0.7869    0.0000 H       1  UNL1        0.0660
     29 H           6.8862   -0.7869    0.0000 H       1  UNL1        0.0660
     30 H           7.7331   -0.5600    0.0000 H       1  UNL1        0.0660
     31 H           7.5062    0.2869    0.0000 H       1  UNL1        0.0660
     32 H           3.4220   -2.7131    0.0000 H       1  UNL1        0.0660
     33 H           3.1951   -3.5600    0.0000 H       1  UNL1        0.0660
     34 H           4.0420   -3.7869    0.0000 H       1  UNL1        0.0660
@<TRIPOS>BOND
     1     1     7    1
     2     1    16    1
     3     2     8    1
     4     2    17    1
     5     3    13    1
     6     3    18    1
     7     4     9    2
     8     5    14    2
     9     6     7   ar
    10     6     8   ar
    11     6     9    1
    12     7    11   ar
    13     8    12   ar
    14     9    10    1
    15    10    14    1
    16    10    19    1
    17    10    20    1
    18    11    13   ar
    19    11    21    1
    20    12    13   ar
    21    12    22    1
    22    14    15    1
    23    15    23    1
    24    15    24    1
    25    15    25    1
    26    16    26    1
    27    16    27    1
    28    16    28    1
    29    17    29    1
    30    17    30    1
    31    17    31    1
    32    18    32    1
    33    18    33    1
    34    18    34    1
