@<TRIPOS>MOLECULE
IMPHY014455
 33 35 0 0 0
SMALL
GASTEIGER

@<TRIPOS>ATOM
      1 N           7.0547   -0.2619    0.0000 N.3     1  UNL1       -0.2975
      2 N           4.5274    0.8623    0.0000 N.2     1  UNL1       -0.2586
      3 C           5.0274   -0.6766    0.0000 C.3     1  UNL1        0.0086
      4 C           4.0274   -0.6766    0.0000 C.3     1  UNL1        0.0128
      5 C           5.3364    0.2745    0.0000 C.2     1  UNL1        0.0397
      6 C           5.7123   -1.4613    0.0000 C.3     1  UNL1       -0.0316
      7 C           6.3518    0.5067    0.0000 C.3     1  UNL1        0.0460
      8 C           6.7328   -1.2526    0.0000 C.3     1  UNL1       -0.0002
      9 C           3.7183    0.2745    0.0000 C.2     1  UNL1        0.0453
     10 C           3.3424   -1.4613    0.0000 C.3     1  UNL1       -0.0256
     11 C           6.6498    1.4613    0.0000 C.3     1  UNL1       -0.0442
     12 C           2.7029    0.5067    0.0000 C.2     1  UNL1       -0.0404
     13 C           2.3219   -1.2526    0.0000 C.2     1  UNL1       -0.0833
     14 C           8.0321   -0.0503    0.0000 C.3     1  UNL1       -0.0121
     15 C           2.0000   -0.2619    0.0000 C.2     1  UNL1       -0.0640
     16 H           4.7708   -1.2410    0.0000 H       1  UNL1        0.0368
     17 H           4.2839   -1.2410    0.0000 H       1  UNL1        0.0373
     18 H           5.1824   -1.7831    0.0000 H       1  UNL1        0.0284
     19 H           5.9387   -2.0385    0.0000 H       1  UNL1        0.0284
     20 H           6.9570    0.6415    0.0000 H       1  UNL1        0.0521
     21 H           6.7513   -1.8723    0.0000 H       1  UNL1        0.0427
     22 H           7.3466   -1.3405    0.0000 H       1  UNL1        0.0427
     23 H           3.1160   -2.0385    0.0000 H       1  UNL1        0.0314
     24 H           3.8724   -1.7831    0.0000 H       1  UNL1        0.0314
     25 H           7.2416    1.2766    0.0000 H       1  UNL1        0.0248
     26 H           6.8345    2.0531    0.0000 H       1  UNL1        0.0248
     27 H           6.0580    1.6461    0.0000 H       1  UNL1        0.0248
     28 H           2.5182    1.0986    0.0000 H       1  UNL1        0.0635
     29 H           1.9088   -1.7149    0.0000 H       1  UNL1        0.0572
     30 H           8.1633   -0.6562    0.0000 H       1  UNL1        0.0391
     31 H           8.6380    0.0810    0.0000 H       1  UNL1        0.0391
     32 H           7.9008    0.5557    0.0000 H       1  UNL1        0.0391
     33 H           1.3940   -0.1307    0.0000 H       1  UNL1        0.0615
@<TRIPOS>BOND
     1     1     7    1
     2     1     8    1
     3     1    14    1
     4     2     5    2
     5     2     9    1
     6     3     4    1
     7     3     5    1
     8     3     6    1
     9     3    16    1
    10     4     9    1
    11     4    10    1
    12     4    17    1
    13     5     7    1
    14     6     8    1
    15     6    18    1
    16     6    19    1
    17     7    11    1
    18     7    20    1
    19     8    21    1
    20     8    22    1
    21     9    12    2
    22    10    13    1
    23    10    23    1
    24    10    24    1
    25    11    25    1
    26    11    26    1
    27    11    27    1
    28    12    15    1
    29    12    28    1
    30    13    15    2
    31    13    29    1
    32    14    30    1
    33    14    31    1
    34    14    32    1
    35    15    33    1
