@<TRIPOS>MOLECULE
IMPHY016991
 39 41 0 0 0
SMALL
GASTEIGER

@<TRIPOS>ATOM
      1 CL          2.0000   -1.0238    0.0000 Cl      1  UNL1       -0.0835
      2 O           9.8622   -1.4829    0.0000 O.2     1  UNL1       -0.4220
      3 O           6.3320   -1.5071    0.0000 O.3     1  UNL1       -0.4873
      4 O          11.5942   -1.4829    0.0000 O.2     1  UNL1       -0.2452
      5 N          10.7282    2.0171    0.0000 N.3     1  UNL1       -0.3150
      6 C           8.9961    0.0171    0.0000 C.ar    1  UNL1        0.0222
      7 C           9.8622    0.5171    0.0000 C.ar    1  UNL1       -0.0162
      8 C           8.9961   -0.9829    0.0000 C.ar    1  UNL1        0.1428
      9 C           9.8622    1.5171    0.0000 C.3     1  UNL1        0.0219
     10 C           8.1022    0.5517    0.0000 C.ar    1  UNL1       -0.0473
     11 C           7.1961   -1.0037    0.0000 C.ar    1  UNL1        0.1245
     12 C           8.1022   -1.5176    0.0000 C.ar    1  UNL1        0.0231
     13 C          10.7282    0.0171    0.0000 C.ar    1  UNL1        0.0280
     14 C           7.1961    0.0379    0.0000 C.ar    1  UNL1       -0.0191
     15 C           5.4641   -1.0104    0.0000 C.3     1  UNL1        0.1147
     16 C          10.7282   -0.9829    0.0000 C.ar    1  UNL1        0.3375
     17 C           4.6000   -1.5138    0.0000 C.ar    1  UNL1       -0.0090
     18 C          10.7282    3.0171    0.0000 C.3     1  UNL1       -0.0155
     19 C           3.7320   -1.0171    0.0000 C.ar    1  UNL1       -0.0370
     20 C           4.6038   -2.5137    0.0000 C.ar    1  UNL1       -0.0553
     21 C           2.8680   -1.5204    0.0000 C.ar    1  UNL1        0.0413
     22 C           3.7398   -3.0171    0.0000 C.ar    1  UNL1       -0.0600
     23 C           2.8718   -2.5204    0.0000 C.ar    1  UNL1       -0.0434
     24 H           9.6501    2.0997    0.0000 H       1  UNL1        0.0474
     25 H           9.2516    1.4094    0.0000 H       1  UNL1        0.0474
     26 H           8.1093    1.1717    0.0000 H       1  UNL1        0.0626
     27 H           8.1093   -2.1375    0.0000 H       1  UNL1        0.0691
     28 H          11.2651    0.3271    0.0000 H       1  UNL1        0.0692
     29 H           6.6604    0.3500    0.0000 H       1  UNL1        0.0654
     30 H           5.8608   -0.5339    0.0000 H       1  UNL1        0.0748
     31 H           5.0637   -0.5370    0.0000 H       1  UNL1        0.0748
     32 H          11.2651    1.7071    0.0000 H       1  UNL1        0.1219
     33 H           3.7296   -0.3971    0.0000 H       1  UNL1        0.0636
     34 H           5.1420   -2.8217    0.0000 H       1  UNL1        0.0621
     35 H          11.3482    3.0171    0.0000 H       1  UNL1        0.0388
     36 H          10.7282    3.6371    0.0000 H       1  UNL1        0.0388
     37 H          10.1082    3.0171    0.0000 H       1  UNL1        0.0388
     38 H           3.7421   -3.6371    0.0000 H       1  UNL1        0.0618
     39 H           2.3361   -2.8325    0.0000 H       1  UNL1        0.0632
@<TRIPOS>BOND
     1     1    21    1
     2     2     8   ar
     3     2    16   ar
     4     3    11    1
     5     3    15    1
     6     4    16    2
     7     5     9    1
     8     5    18    1
     9     5    32    1
    10     6     7   ar
    11     6     8   ar
    12     6    10   ar
    13     7     9    1
    14     7    13   ar
    15     8    12   ar
    16     9    24    1
    17     9    25    1
    18    10    14   ar
    19    10    26    1
    20    11    12   ar
    21    11    14   ar
    22    12    27    1
    23    13    16   ar
    24    13    28    1
    25    14    29    1
    26    15    17    1
    27    15    30    1
    28    15    31    1
    29    17    19   ar
    30    17    20   ar
    31    18    35    1
    32    18    36    1
    33    18    37    1
    34    19    21   ar
    35    19    33    1
    36    20    22   ar
    37    20    34    1
    38    21    23   ar
    39    22    23   ar
    40    22    38    1
    41    23    39    1
