@<TRIPOS>MOLECULE
IMPHY000398
 42 45 0 0 0
SMALL
GASTEIGER

@<TRIPOS>ATOM
      1 O           8.1301   -2.0000    0.0000 O.2     1  UNL1       -0.2868
      2 O           8.1301    2.0000    0.0000 O.2     1  UNL1       -0.2870
      3 O           4.6660   -2.0000    0.0000 O.2     1  UNL1       -0.2870
      4 O           9.8785   -2.0346    0.0000 O.3     1  UNL1       -0.5060
      5 O           4.6660    2.0000    0.0000 O.2     1  UNL1       -0.2871
      6 O           2.9176    2.0346    0.0000 O.3     1  UNL1       -0.5060
      7 C           7.2641   -0.5000    0.0000 C.2     1  UNL1        0.0110
      8 C           6.3981   -1.0000    0.0000 C.3     1  UNL1        0.0054
      9 C           5.5321   -0.5000    0.0000 C.2     1  UNL1        0.0079
     10 C           7.2641    0.5000    0.0000 C.2     1  UNL1        0.0039
     11 C           8.9962   -0.5000    0.0000 C.ar    1  UNL1        0.0741
     12 C           8.1301   -1.0000    0.0000 C.2     1  UNL1        0.1941
     13 C           8.9962    0.5000    0.0000 C.ar    1  UNL1        0.0362
     14 C           8.1301    1.0000    0.0000 C.2     1  UNL1        0.1901
     15 C           4.6660   -1.0000    0.0000 C.2     1  UNL1        0.1904
     16 C           3.8000   -0.5000    0.0000 C.ar    1  UNL1        0.0362
     17 C           3.8000    0.5000    0.0000 C.ar    1  UNL1        0.0738
     18 C           5.5321    0.5000    0.0000 C.2     1  UNL1       -0.0071
     19 C           6.3981    1.0000    0.0000 C.3     1  UNL1       -0.0357
     20 C           4.6660    1.0000    0.0000 C.2     1  UNL1        0.1906
     21 C           9.8901   -1.0347    0.0000 C.ar    1  UNL1        0.1283
     22 C           9.8901    1.0347    0.0000 C.ar    1  UNL1       -0.0500
     23 C           2.9061   -1.0347    0.0000 C.ar    1  UNL1       -0.0500
     24 C           2.9061    1.0347    0.0000 C.ar    1  UNL1        0.1283
     25 C          10.7962   -0.5208    0.0000 C.ar    1  UNL1       -0.0194
     26 C          10.7962    0.5208    0.0000 C.ar    1  UNL1       -0.0576
     27 C           2.0000   -0.5208    0.0000 C.ar    1  UNL1       -0.0576
     28 C           2.0000    0.5208    0.0000 C.ar    1  UNL1       -0.0194
     29 H           5.9996   -1.4750    0.0000 H       1  UNL1        0.0364
     30 H           6.7966   -1.4750    0.0000 H       1  UNL1        0.0364
     31 H           6.0690    0.8100    0.0000 H       1  UNL1        0.0660
     32 H           6.7081    1.5369    0.0000 H       1  UNL1        0.0279
     33 H           5.8612    1.3100    0.0000 H       1  UNL1        0.0279
     34 H           6.0881    0.4631    0.0000 H       1  UNL1        0.0279
     35 H           9.8829    1.6546    0.0000 H       1  UNL1        0.0625
     36 H           2.9132   -1.6546    0.0000 H       1  UNL1        0.0625
     37 H          11.3319   -0.8329    0.0000 H       1  UNL1        0.0654
     38 H          11.3319    0.8329    0.0000 H       1  UNL1        0.0619
     39 H           1.4643   -0.8329    0.0000 H       1  UNL1        0.0619
     40 H           1.4643    0.8329    0.0000 H       1  UNL1        0.0654
     41 H          10.4119   -2.3508    0.0000 H       1  UNL1        0.2922
     42 H           2.3843    2.3508    0.0000 H       1  UNL1        0.2922
@<TRIPOS>BOND
     1     1    12    2
     2     2    14    2
     3     3    15    2
     4     4    21    1
     5     4    41    1
     6     5    20    2
     7     6    24    1
     8     6    42    1
     9     7     8    1
    10     7    10    2
    11     7    12    1
    12     8     9    1
    13     8    29    1
    14     8    30    1
    15     9    15    1
    16     9    18    2
    17    10    14    1
    18    10    19    1
    19    11    12    1
    20    11    13   ar
    21    11    21   ar
    22    13    14    1
    23    13    22   ar
    24    15    16    1
    25    16    17   ar
    26    16    23   ar
    27    17    20    1
    28    17    24   ar
    29    18    20    1
    30    18    31    1
    31    19    32    1
    32    19    33    1
    33    19    34    1
    34    21    25   ar
    35    22    26   ar
    36    22    35    1
    37    23    27   ar
    38    23    36    1
    39    24    28   ar
    40    25    26   ar
    41    25    37    1
    42    26    38    1
    43    27    28   ar
    44    27    39    1
    45    28    40    1
