@<TRIPOS>MOLECULE
IMPHY017043
 32 31 0 0 0
SMALL
GASTEIGER

@<TRIPOS>ATOM
      1 O           2.0000    0.6900    0.0000 O.2     1  UNL1       -0.3010
      2 C           4.5981    0.1900    0.0000 C.3     1  UNL1       -0.0372
      3 C           5.4641    0.6900    0.0000 C.3     1  UNL1       -0.0466
      4 C           6.3301    0.1900    0.0000 C.3     1  UNL1       -0.0343
      5 C           3.7320    0.6900    0.0000 C.3     1  UNL1        0.0054
      6 C           4.5981   -0.8100    0.0000 C.3     1  UNL1       -0.0620
      7 C           7.1962    0.6900    0.0000 C.2     1  UNL1       -0.0850
      8 C           8.0622    0.1900    0.0000 C.2     1  UNL1       -0.0768
      9 C           8.0622   -0.8100    0.0000 C.3     1  UNL1       -0.0349
     10 C           2.8660    0.1900    0.0000 C.2     1  UNL1        0.1206
     11 C           8.9282    0.6900    0.0000 C.3     1  UNL1       -0.0438
     12 C           8.9282   -1.3100    0.0000 C.3     1  UNL1       -0.0616
     13 H           5.1350   -0.1200    0.0000 H       1  UNL1        0.0302
     14 H           5.8626    1.1650    0.0000 H       1  UNL1        0.0271
     15 H           5.0656    1.1650    0.0000 H       1  UNL1        0.0271
     16 H           5.9316   -0.2849    0.0000 H       1  UNL1        0.0307
     17 H           6.7287   -0.2849    0.0000 H       1  UNL1        0.0307
     18 H           4.1306    1.1650    0.0000 H       1  UNL1        0.0341
     19 H           3.3335    1.1650    0.0000 H       1  UNL1        0.0341
     20 H           3.9781   -0.8100    0.0000 H       1  UNL1        0.0233
     21 H           4.5981   -1.4300    0.0000 H       1  UNL1        0.0233
     22 H           5.2181   -0.8100    0.0000 H       1  UNL1        0.0233
     23 H           7.1962    1.3100    0.0000 H       1  UNL1        0.0572
     24 H           7.4516   -0.7023    0.0000 H       1  UNL1        0.0307
     25 H           7.8501   -1.3926    0.0000 H       1  UNL1        0.0307
     26 H           2.8660   -0.4300    0.0000 H       1  UNL1        0.1026
     27 H           9.2382    0.1531    0.0000 H       1  UNL1        0.0274
     28 H           9.4651    1.0000    0.0000 H       1  UNL1        0.0274
     29 H           8.6182    1.2269    0.0000 H       1  UNL1        0.0274
     30 H           8.6182   -1.8469    0.0000 H       1  UNL1        0.0233
     31 H           9.4651   -1.6200    0.0000 H       1  UNL1        0.0233
     32 H           9.2382   -0.7731    0.0000 H       1  UNL1        0.0233
@<TRIPOS>BOND
     1     1    10    2
     2     2     3    1
     3     2     5    1
     4     2     6    1
     5     2    13    1
     6     3     4    1
     7     3    14    1
     8     3    15    1
     9     4     7    1
    10     4    16    1
    11     4    17    1
    12     5    10    1
    13     5    18    1
    14     5    19    1
    15     6    20    1
    16     6    21    1
    17     6    22    1
    18     7     8    2
    19     7    23    1
    20     8     9    1
    21     8    11    1
    22     9    12    1
    23     9    24    1
    24     9    25    1
    25    10    26    1
    26    11    27    1
    27    11    28    1
    28    11    29    1
    29    12    30    1
    30    12    31    1
    31    12    32    1
