@<TRIPOS>MOLECULE
IMPHY001792
 19 19 0 0 0
SMALL
GASTEIGER

@<TRIPOS>ATOM
      1 N           4.5981    2.0000    0.0000 N.1     1  UNL1       -0.1959
      2 C           2.8660    1.0000    0.0000 C.3     1  UNL1        0.0682
      3 C           2.8660    0.0000    0.0000 C.ar    1  UNL1       -0.0308
      4 C           2.0000    1.5000    0.0000 C.3     1  UNL1       -0.0454
      5 C           2.0000   -0.5000    0.0000 C.ar    1  UNL1       -0.0573
      6 C           3.7320   -0.5000    0.0000 C.ar    1  UNL1       -0.0573
      7 C           2.0000   -1.5000    0.0000 C.ar    1  UNL1       -0.0615
      8 C           3.7320   -1.5000    0.0000 C.ar    1  UNL1       -0.0615
      9 C           2.8660   -2.0000    0.0000 C.ar    1  UNL1       -0.0617
     10 C           3.7320    1.5000    0.0000 C.1     1  UNL1        0.0703
     11 H           2.8660    1.8500    0.0000 H       1  UNL1        0.0500
     12 H           2.3100    2.0369    0.0000 H       1  UNL1        0.0245
     13 H           1.4631    1.8100    0.0000 H       1  UNL1        0.0245
     14 H           1.6900    0.9631    0.0000 H       1  UNL1        0.0245
     15 H           1.4631   -0.1900    0.0000 H       1  UNL1        0.0621
     16 H           4.2690   -0.1900    0.0000 H       1  UNL1        0.0621
     17 H           1.4631   -1.8100    0.0000 H       1  UNL1        0.0618
     18 H           4.2690   -1.8100    0.0000 H       1  UNL1        0.0618
     19 H           2.8660   -2.6200    0.0000 H       1  UNL1        0.0618
@<TRIPOS>BOND
     1     1    10    3
     2     2     3    1
     3     2     4    1
     4     2    10    1
     5     2    11    1
     6     3     5   ar
     7     3     6   ar
     8     4    12    1
     9     4    13    1
    10     4    14    1
    11     5     7   ar
    12     5    15    1
    13     6     8   ar
    14     6    16    1
    15     7     9   ar
    16     7    17    1
    17     8     9   ar
    18     8    18    1
    19     9    19    1
