@<TRIPOS>MOLECULE
IMPHY013062
 38 40 0 0 0
SMALL
GASTEIGER

@<TRIPOS>ATOM
      1 O           4.3198    1.4641    0.0000 O.3     1  UNL1       -0.4907
      2 O           8.7045   -0.0736    0.0000 O.3     1  UNL1       -0.4908
      3 O           2.5381   -1.5946    0.0000 O.3     1  UNL1       -0.4913
      4 O           2.5381    0.4537    0.0000 O.3     1  UNL1       -0.5009
      5 O           8.7202    1.9746    0.0000 O.3     1  UNL1       -0.5033
      6 C           5.2022   -0.0705    0.0000 C.ar    1  UNL1        0.0355
      7 C           6.0682    0.4295    0.0000 C.ar    1  UNL1       -0.0028
      8 C           5.2022   -1.0705    0.0000 C.ar    1  UNL1       -0.0101
      9 C           6.9343   -0.0705    0.0000 C.ar    1  UNL1        0.0281
     10 C           4.3083    0.4642    0.0000 C.ar    1  UNL1        0.1732
     11 C           6.0682   -1.5705    0.0000 C.ar    1  UNL1       -0.0531
     12 C           6.9343   -1.0705    0.0000 C.ar    1  UNL1       -0.0498
     13 C           7.8443    0.4364    0.0000 C.ar    1  UNL1        0.1689
     14 C           4.3083   -1.6051    0.0000 C.ar    1  UNL1       -0.0083
     15 C           6.0522    1.4710    0.0000 C.ar    1  UNL1       -0.0496
     16 C           3.4022   -0.0497    0.0000 C.ar    1  UNL1        0.2017
     17 C           3.4022   -1.0913    0.0000 C.ar    1  UNL1        0.1656
     18 C           7.8523    1.4780    0.0000 C.ar    1  UNL1        0.1591
     19 C           6.9502    1.9988    0.0000 C.ar    1  UNL1       -0.0159
     20 C           3.4597    1.9741    0.0000 C.3     1  UNL1        0.0790
     21 C           9.5762    0.4163    0.0000 C.3     1  UNL1        0.0790
     22 C           2.5420   -2.5946    0.0000 C.3     1  UNL1        0.0790
     23 H           6.0682   -2.1905    0.0000 H       1  UNL1        0.0624
     24 H           7.4712   -1.3805    0.0000 H       1  UNL1        0.0625
     25 H           4.3154   -2.2251    0.0000 H       1  UNL1        0.0661
     26 H           5.5117    1.7748    0.0000 H       1  UNL1        0.0625
     27 H           6.9478    2.6188    0.0000 H       1  UNL1        0.0655
     28 H           2.0000    0.1457    0.0000 H       1  UNL1        0.2924
     29 H           3.7758    2.5074    0.0000 H       1  UNL1        0.0660
     30 H           2.9263    2.2903    0.0000 H       1  UNL1        0.0660
     31 H           3.1435    1.4408    0.0000 H       1  UNL1        0.0660
     32 H           8.7226    2.5946    0.0000 H       1  UNL1        0.2923
     33 H           9.8800   -0.1241    0.0000 H       1  UNL1        0.0660
     34 H          10.1167    0.7201    0.0000 H       1  UNL1        0.0660
     35 H           9.2724    0.9568    0.0000 H       1  UNL1        0.0660
     36 H           1.9220   -2.5970    0.0000 H       1  UNL1        0.0660
     37 H           2.5444   -3.2146    0.0000 H       1  UNL1        0.0660
     38 H           3.1620   -2.5922    0.0000 H       1  UNL1        0.0660
@<TRIPOS>BOND
     1     1    10    1
     2     1    20    1
     3     2    13    1
     4     2    21    1
     5     3    17    1
     6     3    22    1
     7     4    16    1
     8     4    28    1
     9     5    18    1
    10     5    32    1
    11     6     7   ar
    12     6     8   ar
    13     6    10   ar
    14     7     9   ar
    15     7    15   ar
    16     8    11   ar
    17     8    14   ar
    18     9    12   ar
    19     9    13   ar
    20    10    16   ar
    21    11    12   ar
    22    11    23    1
    23    12    24    1
    24    13    18   ar
    25    14    17   ar
    26    14    25    1
    27    15    19   ar
    28    15    26    1
    29    16    17   ar
    30    18    19   ar
    31    19    27    1
    32    20    29    1
    33    20    30    1
    34    20    31    1
    35    21    33    1
    36    21    34    1
    37    21    35    1
    38    22    36    1
    39    22    37    1
    40    22    38    1
