@<TRIPOS>MOLECULE
IMPHY004135
 39 39 0 0 0
SMALL
GASTEIGER

@<TRIPOS>ATOM
      1 C           4.5981    1.2500    0.0000 C.3     1  UNL1        0.0075
      2 C           5.4641    0.7500    0.0000 C.3     1  UNL1       -0.0364
      3 C           3.7320    0.7500    0.0000 C.2     1  UNL1       -0.0571
      4 C           5.4641   -0.2500    0.0000 C.3     1  UNL1       -0.0267
      5 C           2.8660    1.2500    0.0000 C.3     1  UNL1       -0.0244
      6 C           4.5981   -0.7500    0.0000 C.2     1  UNL1       -0.0486
      7 C           3.7320   -0.2500    0.0000 C.2     1  UNL1       -0.0583
      8 C           4.0981    2.1160    0.0000 C.3     1  UNL1       -0.0523
      9 C           5.0981    2.1160    0.0000 C.2     1  UNL1       -0.0812
     10 C           2.0000    0.7500    0.0000 C.3     1  UNL1       -0.0589
     11 C           2.8660    2.2500    0.0000 C.3     1  UNL1       -0.0589
     12 C           4.5981   -1.7500    0.0000 C.2     1  UNL1       -0.0725
     13 C           6.0981    2.1160    0.0000 C.2     1  UNL1       -0.1018
     14 C           5.4641   -2.2500    0.0000 C.3     1  UNL1       -0.0435
     15 C           3.7320   -2.2500    0.0000 C.3     1  UNL1       -0.0435
     16 H           6.0747    0.6423    0.0000 H       1  UNL1        0.0280
     17 H           5.6762    1.3326    0.0000 H       1  UNL1        0.0280
     18 H           5.6762   -0.8326    0.0000 H       1  UNL1        0.0314
     19 H           6.0747   -0.1423    0.0000 H       1  UNL1        0.0314
     20 H           2.8660    0.6300    0.0000 H       1  UNL1        0.0341
     21 H           3.1951   -0.5600    0.0000 H       1  UNL1        0.0620
     22 H           4.6350    2.4260    0.0000 H       1  UNL1        0.0241
     23 H           3.7881    2.6530    0.0000 H       1  UNL1        0.0241
     24 H           3.5611    1.8060    0.0000 H       1  UNL1        0.0241
     25 H           4.7881    2.6530    0.0000 H       1  UNL1        0.0575
     26 H           1.6900    1.2869    0.0000 H       1  UNL1        0.0235
     27 H           1.4631    0.4400    0.0000 H       1  UNL1        0.0235
     28 H           2.3100    0.2131    0.0000 H       1  UNL1        0.0235
     29 H           3.4860    2.2500    0.0000 H       1  UNL1        0.0235
     30 H           2.8660    2.8700    0.0000 H       1  UNL1        0.0235
     31 H           2.2460    2.2500    0.0000 H       1  UNL1        0.0235
     32 H           6.4081    1.5791    0.0000 H       1  UNL1        0.0532
     33 H           6.4081    2.6530    0.0000 H       1  UNL1        0.0532
     34 H           5.1541   -2.7869    0.0000 H       1  UNL1        0.0274
     35 H           6.0010   -2.5600    0.0000 H       1  UNL1        0.0274
     36 H           5.7741   -1.7131    0.0000 H       1  UNL1        0.0274
     37 H           3.4220   -1.7131    0.0000 H       1  UNL1        0.0274
     38 H           3.1951   -2.5600    0.0000 H       1  UNL1        0.0274
     39 H           4.0420   -2.7869    0.0000 H       1  UNL1        0.0274
@<TRIPOS>BOND
     1     1     2    1
     2     1     3    1
     3     1     8    1
     4     1     9    1
     5     2     4    1
     6     2    16    1
     7     2    17    1
     8     3     5    1
     9     3     7    2
    10     4     6    1
    11     4    18    1
    12     4    19    1
    13     5    10    1
    14     5    11    1
    15     5    20    1
    16     6     7    1
    17     6    12    2
    18     7    21    1
    19     8    22    1
    20     8    23    1
    21     8    24    1
    22     9    13    2
    23     9    25    1
    24    10    26    1
    25    10    27    1
    26    10    28    1
    27    11    29    1
    28    11    30    1
    29    11    31    1
    30    12    14    1
    31    12    15    1
    32    13    32    1
    33    13    33    1
    34    14    34    1
    35    14    35    1
    36    14    36    1
    37    15    37    1
    38    15    38    1
    39    15    39    1
