@<TRIPOS>MOLECULE
IMPHY004231
 83 89 0 0 0
SMALL
GASTEIGER

@<TRIPOS>ATOM
      1 O           8.0355    2.5570    0.0000 O.3     1  UNL1       -0.3876
      2 O           5.4332    4.0627    0.0000 O.3     1  UNL1       -0.4608
      3 O           9.7908   -2.6251    0.0000 O.3     1  UNL1       -0.3365
      4 O          11.6575   -1.5474    0.0000 O.3     1  UNL1       -0.3366
      5 O           3.1083    1.2562    0.0000 O.3     1  UNL1       -0.4571
      6 O          12.6532   -3.1823    0.0000 O.3     1  UNL1       -0.3465
      7 O           9.8602   -3.6748    0.0000 O.3     1  UNL1       -0.3589
      8 O           9.8371   -4.7948    0.0000 O.3     1  UNL1       -0.3742
      9 O           6.9398    4.9172    0.0000 O.2     1  UNL1       -0.2512
     10 O           2.0000    2.6516    0.0000 O.2     1  UNL1       -0.2456
     11 C           7.1656    2.0637    0.0000 C.3     1  UNL1        0.0785
     12 C           6.2596    1.5498    0.0000 C.3     1  UNL1        0.0071
     13 C           8.0596    1.5290    0.0000 C.3     1  UNL1       -0.0076
     14 C           8.0596    0.5290    0.0000 C.3     1  UNL1       -0.0264
     15 C           8.9256    0.0290    0.0000 C.3     1  UNL1       -0.0054
     16 C           5.4972    2.2506    0.0000 C.3     1  UNL1        0.0290
     17 C           6.2596    0.5082    0.0000 C.3     1  UNL1       -0.0440
     18 C           6.9555    3.0776    0.0000 C.3     1  UNL1        0.0147
     19 C           7.1656   -0.0056    0.0000 C.3     1  UNL1       -0.0485
     20 C           5.9265    3.1929    0.0000 C.3     1  UNL1        0.1128
     21 C           8.9256    2.0290    0.0000 C.3     1  UNL1       -0.0436
     22 C           9.7916    0.5290    0.0000 C.2     1  UNL1       -0.0647
     23 C           5.3897    1.0565    0.0000 C.3     1  UNL1       -0.0563
     24 C           9.7916    1.5290    0.0000 C.3     1  UNL1       -0.0308
     25 C           8.9095   -1.0125    0.0000 C.3     1  UNL1       -0.0144
     26 C           4.5172    2.0519    0.0000 C.2     1  UNL1       -0.0187
     27 C           8.0596   -0.4710    0.0000 C.3     1  UNL1       -0.0555
     28 C           9.8076   -1.5402    0.0000 C.3     1  UNL1        0.0927
     29 C          10.7016    0.0222    0.0000 C.2     1  UNL1       -0.0533
     30 C          10.7096   -1.0194    0.0000 C.3     1  UNL1        0.1065
     31 C           4.1018    1.1423    0.0000 C.3     1  UNL1        0.1148
     32 C           3.7804    2.7280    0.0000 C.2     1  UNL1        0.0253
     33 C          10.7263   -3.1748    0.0000 C.3     1  UNL1        0.2471
     34 C          11.6659   -2.6323    0.0000 C.3     1  UNL1        0.2170
     35 C           5.9398    4.9249    0.0000 C.2     1  UNL1        0.3042
     36 C           2.9097    2.2362    0.0000 C.2     1  UNL1        0.3323
     37 C          10.7088   -4.3049    0.0000 C.3     1  UNL1        0.1190
     38 C          11.6832   -4.8775    0.0000 C.3     1  UNL1        0.0023
     39 C          12.6620   -4.3124    0.0000 C.3     1  UNL1        0.0534
     40 C           5.4465    5.7947    0.0000 C.3     1  UNL1        0.0332
     41 C           9.8255   -5.7947    0.0000 C.3     1  UNL1        0.0370
     42 H           8.7957    1.1040    0.0000 H       1  UNL1        0.0332
     43 H           8.7957    0.9540    0.0000 H       1  UNL1        0.0313
     44 H           5.1114    2.7359    0.0000 H       1  UNL1        0.0389
     45 H           5.6487    0.6143    0.0000 H       1  UNL1        0.0272
     46 H           6.0505   -0.0755    0.0000 H       1  UNL1        0.0272
     47 H           7.5725    3.1389    0.0000 H       1  UNL1        0.0329
     48 H           6.9594    3.6976    0.0000 H       1  UNL1        0.0329
     49 H           6.7720   -0.4847    0.0000 H       1  UNL1        0.0268
     50 H           7.5702   -0.4754    0.0000 H       1  UNL1        0.0268
     51 H           6.2679    3.7104    0.0000 H       1  UNL1        0.0741
     52 H           9.3241    2.5040    0.0000 H       1  UNL1        0.0272
     53 H           8.5271    2.5040    0.0000 H       1  UNL1        0.0272
     54 H           5.0838    1.5958    0.0000 H       1  UNL1        0.0236
     55 H           4.8504    0.7507    0.0000 H       1  UNL1        0.0236
     56 H           5.6956    0.5172    0.0000 H       1  UNL1        0.0236
     57 H          10.4022    1.4214    0.0000 H       1  UNL1        0.0310
     58 H          10.0037    2.1116    0.0000 H       1  UNL1        0.0310
     59 H           8.3004   -0.8970    0.0000 H       1  UNL1        0.0300
     60 H           8.6915   -1.5929    0.0000 H       1  UNL1        0.0300
     61 H           7.7496    0.0660    0.0000 H       1  UNL1        0.0238
     62 H           7.5226   -0.7810    0.0000 H       1  UNL1        0.0238
     63 H           8.3696   -1.0079    0.0000 H       1  UNL1        0.0238
     64 H           8.0402    3.1770    0.0000 H       1  UNL1        0.2102
     65 H           9.0666   -1.9567    0.0000 H       1  UNL1        0.0626
     66 H          11.2349    0.3384    0.0000 H       1  UNL1        0.0598
     67 H          11.4408   -0.5859    0.0000 H       1  UNL1        0.0667
     68 H           3.9672    0.5370    0.0000 H       1  UNL1        0.0746
     69 H           4.6896    0.9451    0.0000 H       1  UNL1        0.0746
     70 H           3.8510    3.3440    0.0000 H       1  UNL1        0.0690
     71 H          12.3971   -2.1989    0.0000 H       1  UNL1        0.0967
     72 H          10.7029   -4.9248    0.0000 H       1  UNL1        0.0652
     73 H          11.2822   -5.3504    0.0000 H       1  UNL1        0.0314
     74 H          12.0805   -5.3534    0.0000 H       1  UNL1        0.0314
     75 H           9.3233   -3.3648    0.0000 H       1  UNL1        0.2130
     76 H          12.8755   -4.8944    0.0000 H       1  UNL1        0.0562
     77 H          13.2720   -4.2016    0.0000 H       1  UNL1        0.0562
     78 H           5.9858    6.1006    0.0000 H       1  UNL1        0.0342
     79 H           5.1407    6.3341    0.0000 H       1  UNL1        0.0342
     80 H           4.9072    5.4889    0.0000 H       1  UNL1        0.0342
     81 H           9.2056   -5.7876    0.0000 H       1  UNL1        0.0524
     82 H           9.8184   -6.4147    0.0000 H       1  UNL1        0.0524
     83 H          10.4455   -5.8019    0.0000 H       1  UNL1        0.0524
@<TRIPOS>BOND
     1    11     1    1
     2     1    64    1
     3    20     2    1
     4     2    35    1
     5     3    28    1
     6     3    33    1
     7     4    30    1
     8     4    34    1
     9     5    31    1
    10     5    36    1
    11     6    34    1
    12     6    39    1
    13    33     7    1
    14     7    75    1
    15    37     8    1
    16     8    41    1
    17     9    35    2
    18    10    36    2
    19    11    12    1
    20    11    13    1
    21    11    18    1
    22    12    16    1
    23    12    17    1
    24    12    23    1
    25    13    14    1
    26    13    21    1
    27    13    42    1
    28    14    15    1
    29    14    19    1
    30    14    43    1
    31    15    22    1
    32    15    25    1
    33    15    27    1
    34    16    20    1
    35    16    26    1
    36    16    44    1
    37    17    19    1
    38    17    45    1
    39    17    46    1
    40    18    20    1
    41    18    47    1
    42    18    48    1
    43    19    49    1
    44    19    50    1
    45    20    51    1
    46    21    24    1
    47    21    52    1
    48    21    53    1
    49    22    24    1
    50    22    29    2
    51    23    54    1
    52    23    55    1
    53    23    56    1
    54    24    57    1
    55    24    58    1
    56    25    28    1
    57    25    59    1
    58    25    60    1
    59    26    31    1
    60    26    32    2
    61    27    61    1
    62    27    62    1
    63    27    63    1
    64    28    30    1
    65    28    65    1
    66    29    30    1
    67    29    66    1
    68    30    67    1
    69    31    68    1
    70    31    69    1
    71    32    36    1
    72    32    70    1
    73    33    34    1
    74    33    37    1
    75    34    71    1
    76    35    40    1
    77    37    38    1
    78    37    72    1
    79    38    39    1
    80    38    73    1
    81    38    74    1
    82    39    76    1
    83    39    77    1
    84    40    78    1
    85    40    79    1
    86    40    80    1
    87    41    81    1
    88    41    82    1
    89    41    83    1
