@<TRIPOS>MOLECULE
IMPHY017250
 49 51 0 0 0
SMALL
GASTEIGER

@<TRIPOS>ATOM
      1 O           3.7782    1.7000    0.0000 O.2     1  UNL1       -0.2835
      2 O           7.3022   -0.3346    0.0000 O.2     1  UNL1       -0.5058
      3 O           5.5442    2.7378    0.0000 O.2     1  UNL1       -0.2834
      4 C           3.8000   -0.3314    0.0000 C.3     1  UNL1        0.0041
      5 C           3.8000   -1.3314    0.0000 C.3     1  UNL1       -0.0079
      6 C           2.9061   -1.8661    0.0000 C.3     1  UNL1       -0.0278
      7 C           2.9061    0.2032    0.0000 C.3     1  UNL1       -0.0429
      8 C           2.0000   -1.3522    0.0000 C.3     1  UNL1       -0.0473
      9 C           2.0000   -0.3106    0.0000 C.3     1  UNL1       -0.0517
     10 C           4.6660    0.1686    0.0000 C.2     1  UNL1        0.0202
     11 C           3.8000    0.6686    0.0000 C.3     1  UNL1       -0.0548
     12 C           4.6660   -1.8314    0.0000 C.2     1  UNL1       -0.0789
     13 C           2.4161   -2.7378    0.0000 C.3     1  UNL1       -0.0593
     14 C           3.4160   -2.7263    0.0000 C.3     1  UNL1       -0.0593
     15 C           5.5321   -0.3314    0.0000 C.2     1  UNL1        0.0240
     16 C           5.5321   -1.3314    0.0000 C.2     1  UNL1       -0.0543
     17 C           4.6500    1.2101    0.0000 C.2     1  UNL1        0.2300
     18 C           6.4421    0.1754    0.0000 C.2     1  UNL1        0.1315
     19 C           6.4501    1.2170    0.0000 C.2     1  UNL1        0.0476
     20 C           5.5480    1.7378    0.0000 C.2     1  UNL1        0.2324
     21 C           7.3180    1.7137    0.0000 C.3     1  UNL1       -0.0143
     22 C           7.3219    2.7137    0.0000 C.3     1  UNL1       -0.0584
     23 C           8.1821    1.2104    0.0000 C.3     1  UNL1       -0.0584
     24 H           3.8066   -2.1814    0.0000 H       1  UNL1        0.0357
     25 H           3.3107    0.6730    0.0000 H       1  UNL1        0.0274
     26 H           2.5124    0.6823    0.0000 H       1  UNL1        0.0274
     27 H           1.3891   -1.2461    0.0000 H       1  UNL1        0.0271
     28 H           1.7909   -1.9359    0.0000 H       1  UNL1        0.0271
     29 H           1.7909    0.2731    0.0000 H       1  UNL1        0.0266
     30 H           1.3891   -0.4167    0.0000 H       1  UNL1        0.0266
     31 H           4.4200    0.6686    0.0000 H       1  UNL1        0.0238
     32 H           3.8000    1.2886    0.0000 H       1  UNL1        0.0238
     33 H           3.1800    0.6686    0.0000 H       1  UNL1        0.0238
     34 H           4.6660   -2.4514    0.0000 H       1  UNL1        0.0575
     35 H           1.8756   -2.4341    0.0000 H       1  UNL1        0.0235
     36 H           2.1123   -3.2783    0.0000 H       1  UNL1        0.0235
     37 H           2.9566   -3.0416    0.0000 H       1  UNL1        0.0235
     38 H           2.8827   -3.0425    0.0000 H       1  UNL1        0.0235
     39 H           3.7322   -3.2596    0.0000 H       1  UNL1        0.0235
     40 H           3.9494   -2.4101    0.0000 H       1  UNL1        0.0235
     41 H           6.0690   -1.6414    0.0000 H       1  UNL1        0.0622
     42 H           7.3156    1.0937    0.0000 H       1  UNL1        0.0346
     43 H           7.2951   -0.9545    0.0000 H       1  UNL1        0.2922
     44 H           7.9419    2.7113    0.0000 H       1  UNL1        0.0235
     45 H           7.3243    3.3337    0.0000 H       1  UNL1        0.0235
     46 H           6.7019    2.7161    0.0000 H       1  UNL1        0.0235
     47 H           7.8701    0.6746    0.0000 H       1  UNL1        0.0235
     48 H           8.7179    0.8983    0.0000 H       1  UNL1        0.0235
     49 H           8.4942    1.7461    0.0000 H       1  UNL1        0.0235
@<TRIPOS>BOND
     1     1    17    2
     2     2    18    1
     3     2    43    1
     4     3    20    2
     5     4     5    1
     6     4     7    1
     7     4    10    1
     8     4    11    1
     9     5     6    1
    10     5    12    1
    11     5    24    1
    12     6     8    1
    13     6    13    1
    14     6    14    1
    15     7     9    1
    16     7    25    1
    17     7    26    1
    18     8     9    1
    19     8    27    1
    20     8    28    1
    21     9    29    1
    22     9    30    1
    23    10    15    2
    24    10    17    1
    25    11    31    1
    26    11    32    1
    27    11    33    1
    28    12    16    2
    29    12    34    1
    30    13    35    1
    31    13    36    1
    32    13    37    1
    33    14    38    1
    34    14    39    1
    35    14    40    1
    36    15    16    1
    37    15    18    1
    38    16    41    1
    39    17    20    1
    40    18    19    2
    41    19    20    1
    42    19    21    1
    43    21    22    1
    44    21    23    1
    45    21    42    1
    46    22    44    1
    47    22    45    1
    48    22    46    1
    49    23    47    1
    50    23    48    1
    51    23    49    1
