@<TRIPOS>MOLECULE
IMPHY017315
 21 21 0 0 0
SMALL
GASTEIGER

@<TRIPOS>ATOM
      1 S           4.0823   -1.1739    0.0000 S.2     1  UNL1       -0.1045
      2 C           4.5823    0.3649    0.0000 C.ar    1  UNL1       -0.0375
      3 C           3.5823    0.3649    0.0000 C.ar    1  UNL1       -0.0375
      4 C           5.1701    1.1739    0.0000 C.3     1  UNL1       -0.0298
      5 C           2.9945    1.1739    0.0000 C.3     1  UNL1       -0.0298
      6 C           4.8913   -0.5861    0.0000 C.ar    1  UNL1       -0.0209
      7 C           3.2733   -0.5861    0.0000 C.ar    1  UNL1       -0.0209
      8 C           6.1646    1.0694    0.0000 C.3     1  UNL1       -0.0612
      9 C           2.0000    1.0694    0.0000 C.3     1  UNL1       -0.0612
     10 H           5.3410    1.7699    0.0000 H       1  UNL1        0.0311
     11 H           4.6128    1.4457    0.0000 H       1  UNL1        0.0311
     12 H           3.5518    1.4457    0.0000 H       1  UNL1        0.0311
     13 H           2.8236    1.7699    0.0000 H       1  UNL1        0.0311
     14 H           5.4810   -0.7777    0.0000 H       1  UNL1        0.0696
     15 H           2.6836   -0.7777    0.0000 H       1  UNL1        0.0696
     16 H           6.0998    0.4528    0.0000 H       1  UNL1        0.0233
     17 H           6.7812    1.0046    0.0000 H       1  UNL1        0.0233
     18 H           6.2294    1.6860    0.0000 H       1  UNL1        0.0233
     19 H           1.9352    1.6860    0.0000 H       1  UNL1        0.0233
     20 H           1.3834    1.0046    0.0000 H       1  UNL1        0.0233
     21 H           2.0648    0.4528    0.0000 H       1  UNL1        0.0233
@<TRIPOS>BOND
     1     1     6   ar
     2     1     7   ar
     3     2     3   ar
     4     2     4    1
     5     2     6   ar
     6     3     5    1
     7     3     7   ar
     8     4     8    1
     9     4    10    1
    10     4    11    1
    11     5     9    1
    12     5    12    1
    13     5    13    1
    14     6    14    1
    15     7    15    1
    16     8    16    1
    17     8    17    1
    18     8    18    1
    19     9    19    1
    20     9    20    1
    21     9    21    1
