@<TRIPOS>MOLECULE
IMPHY013116
 49 52 0 0 0
SMALL
GASTEIGER

@<TRIPOS>ATOM
      1 O           4.2493   -0.5447    0.0000 O.3     1  UNL1       -0.3369
      2 O           5.9812   -0.5247    0.0000 O.3     1  UNL1       -0.4534
      3 O           4.2840   -3.5445    0.0000 O.3     1  UNL1       -0.3864
      4 O           6.0043   -2.5246    0.0000 O.3     1  UNL1       -0.3829
      5 O           2.5405   -2.5646    0.0000 O.3     1  UNL1       -0.3869
      6 O           7.7296    0.5099    0.0000 O.2     1  UNL1       -0.4470
      7 O           4.1995    0.4858    0.0000 O.3     1  UNL1       -0.5031
      8 O           5.9812    3.5445    0.0000 O.3     1  UNL1       -0.5058
      9 O           9.4617    2.5099    0.0000 O.3     1  UNL1       -0.5007
     10 O           7.7296    3.5099    0.0000 O.2     1  UNL1       -0.2830
     11 O          12.0598   -0.9901    0.0000 O.3     1  UNL1       -0.5068
     12 C           4.2724   -2.5446    0.0000 C.3     1  UNL1        0.1148
     13 C           5.1326   -2.0346    0.0000 C.3     1  UNL1        0.1454
     14 C           3.4007   -2.0546    0.0000 C.3     1  UNL1        0.1070
     15 C           5.1210   -1.0347    0.0000 C.3     1  UNL1        0.2308
     16 C           3.3891   -1.0547    0.0000 C.3     1  UNL1        0.0802
     17 C           5.9697    0.4753    0.0000 C.ar    1  UNL1        0.2080
     18 C           6.8636    1.0099    0.0000 C.ar    1  UNL1        0.1882
     19 C           6.8636    2.0099    0.0000 C.ar    1  UNL1        0.1128
     20 C           5.0636    0.9891    0.0000 C.ar    1  UNL1        0.1658
     21 C           5.9697    2.5446    0.0000 C.ar    1  UNL1        0.1350
     22 C           5.0636    2.0307    0.0000 C.ar    1  UNL1        0.0259
     23 C           7.7296    2.5099    0.0000 C.ar    1  UNL1        0.2380
     24 C           8.5957    1.0099    0.0000 C.ar    1  UNL1        0.1808
     25 C           8.5957    2.0099    0.0000 C.ar    1  UNL1        0.2082
     26 C           9.4617    0.5099    0.0000 C.ar    1  UNL1        0.0213
     27 C          10.3277    1.0099    0.0000 C.ar    1  UNL1       -0.0475
     28 C           9.4617   -0.4901    0.0000 C.ar    1  UNL1       -0.0475
     29 C          11.1937    0.5099    0.0000 C.ar    1  UNL1       -0.0195
     30 C          10.3277   -0.9901    0.0000 C.ar    1  UNL1       -0.0195
     31 C          11.1937   -0.4901    0.0000 C.ar    1  UNL1        0.1169
     32 H           3.7391   -2.8608    0.0000 H       1  UNL1        0.0648
     33 H           5.1398   -2.6546    0.0000 H       1  UNL1        0.0683
     34 H           2.8602   -1.7508    0.0000 H       1  UNL1        0.0643
     35 H           5.6615   -1.3384    0.0000 H       1  UNL1        0.1084
     36 H           3.1703   -0.4746    0.0000 H       1  UNL1        0.0588
     37 H           2.7798   -1.1694    0.0000 H       1  UNL1        0.0588
     38 H           3.7507   -3.8607    0.0000 H       1  UNL1        0.2100
     39 H           6.0115   -3.1445    0.0000 H       1  UNL1        0.2102
     40 H           2.0000   -2.2608    0.0000 H       1  UNL1        0.2100
     41 H           4.5279    2.3428    0.0000 H       1  UNL1        0.0692
     42 H           3.6614    0.7937    0.0000 H       1  UNL1        0.2923
     43 H          10.3277    1.6299    0.0000 H       1  UNL1        0.0626
     44 H           8.9248   -0.8001    0.0000 H       1  UNL1        0.0626
     45 H           5.4479    3.8607    0.0000 H       1  UNL1        0.2922
     46 H           9.4617    3.1299    0.0000 H       1  UNL1        0.2924
     47 H          11.7307    0.8199    0.0000 H       1  UNL1        0.0654
     48 H          10.3277   -1.6101    0.0000 H       1  UNL1        0.0654
     49 H          12.5967   -0.6801    0.0000 H       1  UNL1        0.2921
@<TRIPOS>BOND
     1     1    15    1
     2     1    16    1
     3    15     2    1
     4     2    17    1
     5    12     3    1
     6     3    38    1
     7    13     4    1
     8     4    39    1
     9    14     5    1
    10     5    40    1
    11     6    18   ar
    12     6    24   ar
    13     7    20    1
    14     7    42    1
    15     8    21    1
    16     8    45    1
    17     9    25    1
    18     9    46    1
    19    10    23    2
    20    11    31    1
    21    11    49    1
    22    12    13    1
    23    12    14    1
    24    12    32    1
    25    13    15    1
    26    13    33    1
    27    14    16    1
    28    14    34    1
    29    15    35    1
    30    16    36    1
    31    16    37    1
    32    17    18   ar
    33    17    20   ar
    34    18    19   ar
    35    19    21   ar
    36    19    23   ar
    37    20    22   ar
    38    21    22   ar
    39    22    41    1
    40    23    25   ar
    41    24    25   ar
    42    24    26    1
    43    26    27   ar
    44    26    28   ar
    45    27    29   ar
    46    27    43    1
    47    28    30   ar
    48    28    44    1
    49    29    31   ar
    50    29    47    1
    51    30    31   ar
    52    30    48    1
