@<TRIPOS>MOLECULE
IMPHY007448
 25 25 0 0 0
SMALL
GASTEIGER

@<TRIPOS>ATOM
      1 O           2.8660    0.8100    0.0000 O.2     1  UNL1       -0.2976
      2 N           5.4641   -0.6900    0.0000 N.3     1  UNL1       -0.3128
      3 C           4.5981   -0.1900    0.0000 C.3     1  UNL1        0.0143
      4 C           4.5981    0.8100    0.0000 C.3     1  UNL1       -0.0371
      5 C           5.4641    1.3100    0.0000 C.3     1  UNL1       -0.0505
      6 C           6.3301    0.8100    0.0000 C.3     1  UNL1       -0.0404
      7 C           6.3301   -0.1900    0.0000 C.3     1  UNL1       -0.0038
      8 C           3.7320   -0.6900    0.0000 C.3     1  UNL1        0.0210
      9 C           2.8660   -0.1900    0.0000 C.2     1  UNL1        0.1318
     10 C           2.0000   -0.6900    0.0000 C.3     1  UNL1       -0.0060
     11 H           4.5981   -1.0400    0.0000 H       1  UNL1        0.0464
     12 H           4.3860    1.3926    0.0000 H       1  UNL1        0.0280
     13 H           3.9875    0.7023    0.0000 H       1  UNL1        0.0280
     14 H           5.8626    1.7850    0.0000 H       1  UNL1        0.0266
     15 H           5.0656    1.7850    0.0000 H       1  UNL1        0.0266
     16 H           6.9407    0.7023    0.0000 H       1  UNL1        0.0277
     17 H           6.5422    1.3926    0.0000 H       1  UNL1        0.0277
     18 H           6.5422   -0.7726    0.0000 H       1  UNL1        0.0424
     19 H           6.9407   -0.0823    0.0000 H       1  UNL1        0.0424
     20 H           5.4641   -1.3100    0.0000 H       1  UNL1        0.1222
     21 H           3.3335   -1.1650    0.0000 H       1  UNL1        0.0357
     22 H           4.1306   -1.1650    0.0000 H       1  UNL1        0.0357
     23 H           1.6900   -0.1531    0.0000 H       1  UNL1        0.0306
     24 H           1.4631   -1.0000    0.0000 H       1  UNL1        0.0306
     25 H           2.3100   -1.2269    0.0000 H       1  UNL1        0.0306
@<TRIPOS>BOND
     1     1     9    2
     2     2     3    1
     3     2     7    1
     4     2    20    1
     5     3     4    1
     6     3     8    1
     7     3    11    1
     8     4     5    1
     9     4    12    1
    10     4    13    1
    11     5     6    1
    12     5    14    1
    13     5    15    1
    14     6     7    1
    15     6    16    1
    16     6    17    1
    17     7    18    1
    18     7    19    1
    19     8     9    1
    20     8    21    1
    21     8    22    1
    22     9    10    1
    23    10    23    1
    24    10    24    1
    25    10    25    1
