@<TRIPOS>MOLECULE
IMPHY011017
 28 27 0 0 0
SMALL
GASTEIGER

@<TRIPOS>ATOM
      1 O           2.5369   -0.4330    0.0000 O.3     1  UNL1       -0.3891
      2 C           3.4030    0.0670    0.0000 C.3     1  UNL1        0.0605
      3 C           4.2690    0.5670    0.0000 C.3     1  UNL1       -0.0242
      4 C           5.1350    0.0670    0.0000 C.3     1  UNL1       -0.0468
      5 C           6.0010    0.5670    0.0000 C.3     1  UNL1       -0.0322
      6 C           2.9030    0.9330    0.0000 C.3     1  UNL1       -0.0363
      7 C           3.9030   -0.7990    0.0000 C.3     1  UNL1       -0.0363
      8 C           6.8671    0.0670    0.0000 C.2     1  UNL1       -0.0797
      9 C           7.7331    0.5670    0.0000 C.3     1  UNL1       -0.0440
     10 C           6.8671   -0.9330    0.0000 C.2     1  UNL1       -0.0997
     11 H           4.6675    1.0419    0.0000 H       1  UNL1        0.0293
     12 H           3.8705    1.0419    0.0000 H       1  UNL1        0.0293
     13 H           4.7365   -0.4080    0.0000 H       1  UNL1        0.0269
     14 H           5.5335   -0.4080    0.0000 H       1  UNL1        0.0269
     15 H           6.3996    1.0419    0.0000 H       1  UNL1        0.0310
     16 H           5.6025    1.0419    0.0000 H       1  UNL1        0.0310
     17 H           3.4399    1.2430    0.0000 H       1  UNL1        0.0257
     18 H           2.5930    1.4700    0.0000 H       1  UNL1        0.0257
     19 H           2.3660    0.6230    0.0000 H       1  UNL1        0.0257
     20 H           3.3660   -1.1090    0.0000 H       1  UNL1        0.0257
     21 H           4.2130   -1.3360    0.0000 H       1  UNL1        0.0257
     22 H           4.4399   -0.4890    0.0000 H       1  UNL1        0.0257
     23 H           2.0000   -0.1230    0.0000 H       1  UNL1        0.2101
     24 H           8.0431    0.0301    0.0000 H       1  UNL1        0.0274
     25 H           8.2700    0.8770    0.0000 H       1  UNL1        0.0274
     26 H           7.4231    1.1039    0.0000 H       1  UNL1        0.0274
     27 H           6.3301   -1.2430    0.0000 H       1  UNL1        0.0534
     28 H           7.4040   -1.2430    0.0000 H       1  UNL1        0.0534
@<TRIPOS>BOND
     1     1     2    1
     2     1    23    1
     3     2     3    1
     4     2     6    1
     5     2     7    1
     6     3     4    1
     7     3    11    1
     8     3    12    1
     9     4     5    1
    10     4    13    1
    11     4    14    1
    12     5     8    1
    13     5    15    1
    14     5    16    1
    15     6    17    1
    16     6    18    1
    17     6    19    1
    18     7    20    1
    19     7    21    1
    20     7    22    1
    21     8     9    1
    22     8    10    2
    23     9    24    1
    24     9    25    1
    25     9    26    1
    26    10    27    1
    27    10    28    1
