@<TRIPOS>MOLECULE
IMPHY000213
 77 81 0 0 0
SMALL
GASTEIGER

@<TRIPOS>ATOM
      1 O           5.2572    4.7487    0.0000 O.3     1  UNL1       -0.3801
      2 O           4.3060    1.5636    0.0000 O.2     1  UNL1       -0.2971
      3 O           8.6120    3.5410    0.0000 O.2     1  UNL1       -0.2970
      4 O           6.0010   -2.6266    0.0000 O.3     1  UNL1       -0.3451
      5 O           5.2147    5.9419    0.0000 O.2     1  UNL1       -0.2946
      6 O           4.2690   -2.6266    0.0000 O.3     1  UNL1       -0.3431
      7 O           6.0010   -4.6266    0.0000 O.3     1  UNL1       -0.3841
      8 O           4.2690   -5.6266    0.0000 O.3     1  UNL1       -0.3744
      9 O           2.5369   -4.6266    0.0000 O.3     1  UNL1       -0.3866
     10 C           6.0303    3.5702    0.0000 C.3     1  UNL1        0.0204
     11 C           6.8982    3.0736    0.0000 C.3     1  UNL1        0.0302
     12 C           6.9021    2.0736    0.0000 C.3     1  UNL1       -0.0172
     13 C           6.0380    1.5702    0.0000 C.3     1  UNL1        0.0303
     14 C           6.0260    0.5287    0.0000 C.3     1  UNL1       -0.0011
     15 C           6.2358    4.5428    0.0000 C.3     1  UNL1        0.1362
     16 C           5.1662    3.0669    0.0000 C.3     1  UNL1        0.0152
     17 C           5.1701    2.0669    0.0000 C.2     1  UNL1        0.1382
     18 C           7.8140    1.5702    0.0000 C.3     1  UNL1       -0.0303
     19 C           7.6327    3.7435    0.0000 C.2     1  UNL1        0.1405
     20 C           7.2241    4.6497    0.0000 C.3     1  UNL1        0.0425
     21 C           6.9260    0.0044    0.0000 C.2     1  UNL1       -0.0644
     22 C           5.0761    0.0044    0.0000 C.3     1  UNL1       -0.0409
     23 C           5.1624    4.0669    0.0000 C.3     1  UNL1       -0.0555
     24 C           7.8261    0.5287    0.0000 C.2     1  UNL1       -0.0838
     25 C           5.1619    1.0320    0.0000 C.3     1  UNL1       -0.0552
     26 C           6.9386   -1.0805    0.0000 C.3     1  UNL1       -0.0047
     27 C           5.0635   -1.0805    0.0000 C.3     1  UNL1       -0.0254
     28 C           6.0010   -1.6266    0.0000 C.3     1  UNL1        0.0655
     29 C           6.1291    5.5371    0.0000 C.2     1  UNL1        0.1625
     30 C           6.9369    6.1266    0.0000 C.3     1  UNL1       -0.0031
     31 C           5.1350   -3.1266    0.0000 C.3     1  UNL1        0.1881
     32 C           5.1350   -4.1266    0.0000 C.3     1  UNL1        0.1344
     33 C           4.2690   -4.6266    0.0000 C.3     1  UNL1        0.1170
     34 C           3.4030   -3.1266    0.0000 C.3     1  UNL1        0.0873
     35 C           3.4030   -4.1266    0.0000 C.3     1  UNL1        0.1097
     36 C           2.5369   -2.6266    0.0000 C.3     1  UNL1       -0.0361
     37 C           3.4030   -6.1266    0.0000 C.3     1  UNL1        0.0370
     38 H           7.6765    2.7318    0.0000 H       1  UNL1        0.0387
     39 H           7.6333    2.5071    0.0000 H       1  UNL1        0.0318
     40 H           6.7725    1.1424    0.0000 H       1  UNL1        0.0389
     41 H           4.9519    3.6487    0.0000 H       1  UNL1        0.0348
     42 H           4.5560    2.9569    0.0000 H       1  UNL1        0.0348
     43 H           8.4261    1.4712    0.0000 H       1  UNL1        0.0310
     44 H           8.0163    2.1563    0.0000 H       1  UNL1        0.0310
     45 H           7.8129    4.8437    0.0000 H       1  UNL1        0.0374
     46 H           7.0930    5.2557    0.0000 H       1  UNL1        0.0374
     47 H           4.8738    0.5905    0.0000 H       1  UNL1        0.0275
     48 H           4.4640   -0.0946    0.0000 H       1  UNL1        0.0275
     49 H           5.4703    4.6050    0.0000 H       1  UNL1        0.0236
     50 H           4.6242    4.3748    0.0000 H       1  UNL1        0.0236
     51 H           4.8544    3.5288    0.0000 H       1  UNL1        0.0236
     52 H           8.3654    0.2228    0.0000 H       1  UNL1        0.0572
     53 H           5.4739    1.5678    0.0000 H       1  UNL1        0.0238
     54 H           4.6261    1.3441    0.0000 H       1  UNL1        0.0238
     55 H           4.8498    0.4963    0.0000 H       1  UNL1        0.0238
     56 H           7.1544   -1.6618    0.0000 H       1  UNL1        0.0335
     57 H           7.5482   -0.9674    0.0000 H       1  UNL1        0.0335
     58 H           4.4539   -0.9674    0.0000 H       1  UNL1        0.0290
     59 H           4.8477   -1.6618    0.0000 H       1  UNL1        0.0290
     60 H           6.5386   -1.9356    0.0000 H       1  UNL1        0.0600
     61 H           5.0643    5.3379    0.0000 H       1  UNL1        0.2108
     62 H           7.3024    5.6258    0.0000 H       1  UNL1        0.0307
     63 H           7.4377    6.4921    0.0000 H       1  UNL1        0.0307
     64 H           6.5714    6.6275    0.0000 H       1  UNL1        0.0307
     65 H           5.1350   -2.5066    0.0000 H       1  UNL1        0.0937
     66 H           5.1350   -4.7466    0.0000 H       1  UNL1        0.0671
     67 H           3.7320   -4.9366    0.0000 H       1  UNL1        0.0650
     68 H           3.4030   -2.5066    0.0000 H       1  UNL1        0.0621
     69 H           2.8660   -3.8166    0.0000 H       1  UNL1        0.0646
     70 H           6.0010   -5.2466    0.0000 H       1  UNL1        0.2101
     71 H           2.8469   -2.0897    0.0000 H       1  UNL1        0.0255
     72 H           2.0000   -2.3166    0.0000 H       1  UNL1        0.0255
     73 H           2.2269   -3.1636    0.0000 H       1  UNL1        0.0255
     74 H           2.0000   -4.3166    0.0000 H       1  UNL1        0.2100
     75 H           3.0930   -5.5897    0.0000 H       1  UNL1        0.0524
     76 H           2.8660   -6.4366    0.0000 H       1  UNL1        0.0524
     77 H           3.7130   -6.6636    0.0000 H       1  UNL1        0.0524
@<TRIPOS>BOND
     1    15     1    1
     2     1    61    1
     3     2    17    2
     4     3    19    2
     5    28     4    1
     6     4    31    1
     7     5    29    2
     8     6    31    1
     9     6    34    1
    10    32     7    1
    11     7    70    1
    12    33     8    1
    13     8    37    1
    14    35     9    1
    15     9    74    1
    16    10    11    1
    17    10    15    1
    18    10    16    1
    19    10    23    1
    20    11    12    1
    21    11    19    1
    22    11    38    1
    23    12    13    1
    24    12    18    1
    25    12    39    1
    26    13    14    1
    27    13    17    1
    28    13    40    1
    29    14    21    1
    30    14    22    1
    31    14    25    1
    32    15    20    1
    33    15    29    1
    34    16    17    1
    35    16    41    1
    36    16    42    1
    37    18    24    1
    38    18    43    1
    39    18    44    1
    40    19    20    1
    41    20    45    1
    42    20    46    1
    43    21    24    2
    44    21    26    1
    45    22    27    1
    46    22    47    1
    47    22    48    1
    48    23    49    1
    49    23    50    1
    50    23    51    1
    51    24    52    1
    52    25    53    1
    53    25    54    1
    54    25    55    1
    55    26    28    1
    56    26    56    1
    57    26    57    1
    58    27    28    1
    59    27    58    1
    60    27    59    1
    61    28    60    1
    62    29    30    1
    63    30    62    1
    64    30    63    1
    65    30    64    1
    66    31    32    1
    67    31    65    1
    68    32    33    1
    69    32    66    1
    70    33    35    1
    71    33    67    1
    72    34    35    1
    73    34    36    1
    74    34    68    1
    75    35    69    1
    76    36    71    1
    77    36    72    1
    78    36    73    1
    79    37    75    1
    80    37    76    1
    81    37    77    1
