@<TRIPOS>MOLECULE
IMPHY002186
 143 150 0 0 0
SMALL
GASTEIGER

@<TRIPOS>ATOM
      1 O           6.8671   -1.8322    0.0000 O.3     1  UNL1       -0.3448
      2 O           5.1720    2.3580    0.0000 O.2     1  UNL1       -0.2923
      3 O           8.6424    7.5222    0.0000 O.3     1  UNL1       -0.3912
      4 O           9.3112   -1.1406    0.0000 O.3     1  UNL1       -0.3944
      5 O           5.1350   -1.8322    0.0000 O.3     1  UNL1       -0.3315
      6 O           6.8671   -3.8322    0.0000 O.3     1  UNL1       -0.3377
      7 O           5.1350   -4.8322    0.0000 O.3     1  UNL1       -0.3864
      8 O           3.4030   -3.8322    0.0000 O.3     1  UNL1       -0.3860
      9 O           6.0010   -5.3322    0.0000 O.3     1  UNL1       -0.3405
     10 O           2.5369   -2.3322    0.0000 O.3     1  UNL1       -0.4788
     11 O           3.4030   -0.8323    0.0000 O.2     1  UNL1       -0.2480
     12 O           8.5991   -4.8322    0.0000 O.3     1  UNL1       -0.3378
     13 O           8.5991   -6.8322    0.0000 O.3     1  UNL1       -0.3864
     14 O           6.8671   -7.8322    0.0000 O.3     1  UNL1       -0.3865
     15 O           9.4651   -6.3322    0.0000 O.3     1  UNL1       -0.3431
     16 O           5.1350   -7.8322    0.0000 O.3     1  UNL1       -0.3924
     17 O          10.3312   -3.8322    0.0000 O.3     1  UNL1       -0.3841
     18 O          12.0632   -4.8322    0.0000 O.3     1  UNL1       -0.3864
     19 O          12.0632   -6.8322    0.0000 O.3     1  UNL1       -0.3866
     20 C           7.7681    2.8680    0.0000 C.3     1  UNL1       -0.0127
     21 C           6.8920    1.3231    0.0000 C.3     1  UNL1       -0.0182
     22 C           6.9040    2.3646    0.0000 C.3     1  UNL1        0.0333
     23 C           7.7643    3.8680    0.0000 C.3     1  UNL1       -0.0043
     24 C           7.7920    0.7988    0.0000 C.3     1  UNL1       -0.0251
     25 C           8.6801    2.3646    0.0000 C.3     1  UNL1       -0.0459
     26 C           7.8046   -0.2861    0.0000 C.3     1  UNL1        0.0206
     27 C           8.6921    1.3231    0.0000 C.3     1  UNL1       -0.0485
     28 C           6.8963    4.3646    0.0000 C.2     1  UNL1       -0.0561
     29 C           6.8762    5.4061    0.0000 C.3     1  UNL1       -0.0107
     30 C           7.7722    5.9373    0.0000 C.3     1  UNL1        0.0005
     31 C           8.6723    4.3783    0.0000 C.3     1  UNL1       -0.0428
     32 C           5.9421    0.7988    0.0000 C.3     1  UNL1       -0.0443
     33 C           8.6763    5.4199    0.0000 C.3     1  UNL1       -0.0439
     34 C           6.8671   -0.8323    0.0000 C.3     1  UNL1        0.0695
     35 C           6.0361    2.8613    0.0000 C.2     1  UNL1        0.1602
     36 C           8.7522    3.0454    0.0000 C.3     1  UNL1       -0.0581
     37 C           5.9295   -0.2861    0.0000 C.3     1  UNL1       -0.0254
     38 C           6.0279    1.8264    0.0000 C.3     1  UNL1       -0.0586
     39 C           8.7497    3.6981    0.0000 C.3     1  UNL1       -0.0553
     40 C           5.9223    5.9230    0.0000 C.3     1  UNL1       -0.0406
     41 C           6.0322    3.8613    0.0000 C.2     1  UNL1       -0.0188
     42 C           7.7764    7.0222    0.0000 C.3     1  UNL1        0.0616
     43 C           5.9014    7.0078    0.0000 C.3     1  UNL1       -0.0320
     44 C           6.8347    7.5611    0.0000 C.3     1  UNL1       -0.0211
     45 C           8.8046   -0.2784    0.0000 C.3     1  UNL1        0.0522
     46 C           8.3113   -1.1483    0.0000 C.3     1  UNL1       -0.0548
     47 C           8.6324    6.4473    0.0000 C.3     1  UNL1       -0.0567
     48 C           5.3881    7.8660    0.0000 C.3     1  UNL1       -0.0597
     49 C           4.9015    6.9924    0.0000 C.3     1  UNL1       -0.0597
     50 C           6.0010   -2.3322    0.0000 C.3     1  UNL1        0.1892
     51 C           6.0010   -3.3322    0.0000 C.3     1  UNL1        0.1407
     52 C           5.1350   -3.8322    0.0000 C.3     1  UNL1        0.1149
     53 C           4.2690   -2.3322    0.0000 C.3     1  UNL1        0.1859
     54 C           4.2690   -3.3322    0.0000 C.3     1  UNL1        0.1202
     55 C           6.8671   -4.8322    0.0000 C.3     1  UNL1        0.1889
     56 C           3.4030   -1.8322    0.0000 C.2     1  UNL1        0.3367
     57 C           7.7331   -5.3322    0.0000 C.3     1  UNL1        0.1406
     58 C           7.7331   -6.3322    0.0000 C.3     1  UNL1        0.1144
     59 C           6.0010   -6.3322    0.0000 C.3     1  UNL1        0.1130
     60 C           6.8671   -6.8322    0.0000 C.3     1  UNL1        0.1119
     61 C           5.1350   -6.8322    0.0000 C.3     1  UNL1        0.0730
     62 C           9.4651   -5.3322    0.0000 C.3     1  UNL1        0.1884
     63 C          10.3312   -4.8322    0.0000 C.3     1  UNL1        0.1341
     64 C          11.1972   -5.3322    0.0000 C.3     1  UNL1        0.1140
     65 C          10.3312   -6.8322    0.0000 C.3     1  UNL1        0.0873
     66 C          11.1972   -6.3322    0.0000 C.3     1  UNL1        0.1095
     67 C          10.3312   -7.8322    0.0000 C.3     1  UNL1       -0.0361
     68 H           7.6385    1.9368    0.0000 H       1  UNL1        0.0392
     69 H           8.5314    0.3795    0.0000 H       1  UNL1        0.0313
     70 H           9.2921    2.2656    0.0000 H       1  UNL1        0.0271
     71 H           8.8824    2.9507    0.0000 H       1  UNL1        0.0271
     72 H           8.9079    0.7418    0.0000 H       1  UNL1        0.0268
     73 H           9.3017    1.4362    0.0000 H       1  UNL1        0.0268
     74 H           6.1502    4.9642    0.0000 H       1  UNL1        0.0352
     75 H           8.8791    3.7938    0.0000 H       1  UNL1        0.0274
     76 H           9.2836    4.4820    0.0000 H       1  UNL1        0.0274
     77 H           5.7398    1.3848    0.0000 H       1  UNL1        0.0272
     78 H           5.3300    0.6998    0.0000 H       1  UNL1        0.0272
     79 H           9.2868    5.3115    0.0000 H       1  UNL1        0.0272
     80 H           8.8876    6.0028    0.0000 H       1  UNL1        0.0272
     81 H           7.4046   -1.1412    0.0000 H       1  UNL1        0.0603
     82 H           8.8623    2.4352    0.0000 H       1  UNL1        0.0236
     83 H           9.3624    3.1554    0.0000 H       1  UNL1        0.0236
     84 H           8.6422    3.6556    0.0000 H       1  UNL1        0.0236
     85 H           5.3199   -0.1730    0.0000 H       1  UNL1        0.0290
     86 H           5.7137   -0.8674    0.0000 H       1  UNL1        0.0290
     87 H           6.3400    2.3621    0.0000 H       1  UNL1        0.0235
     88 H           5.4922    2.1385    0.0000 H       1  UNL1        0.0235
     89 H           5.7158    1.2907    0.0000 H       1  UNL1        0.0235
     90 H           8.6444    3.0871    0.0000 H       1  UNL1        0.0238
     91 H           9.3607    3.5928    0.0000 H       1  UNL1        0.0238
     92 H           8.8550    4.3091    0.0000 H       1  UNL1        0.0238
     93 H           5.3095    6.0173    0.0000 H       1  UNL1        0.0276
     94 H           5.7246    5.3354    0.0000 H       1  UNL1        0.0276
     95 H           5.4941    4.1692    0.0000 H       1  UNL1        0.0652
     96 H           8.3128    6.7112    0.0000 H       1  UNL1        0.0599
     97 H           7.2302    8.0386    0.0000 H       1  UNL1        0.0295
     98 H           6.4319    8.0325    0.0000 H       1  UNL1        0.0295
     99 H           9.3855   -0.0619    0.0000 H       1  UNL1        0.0563
    100 H           8.6922    0.3313    0.0000 H       1  UNL1        0.0563
    101 H           7.7767   -1.4624    0.0000 H       1  UNL1        0.0237
    102 H           8.6254   -1.6828    0.0000 H       1  UNL1        0.0237
    103 H           8.8458   -0.8342    0.0000 H       1  UNL1        0.0237
    104 H           8.9486    5.9139    0.0000 H       1  UNL1        0.0236
    105 H           9.1657    6.7634    0.0000 H       1  UNL1        0.0236
    106 H           8.3162    6.9806    0.0000 H       1  UNL1        0.0236
    107 H           4.8920    7.6123    0.0000 H       1  UNL1        0.0235
    108 H           4.2816    6.9828    0.0000 H       1  UNL1        0.0235
    109 H           4.9111    6.3725    0.0000 H       1  UNL1        0.0235
    110 H           5.9202    8.1842    0.0000 H       1  UNL1        0.0235
    111 H           5.0699    8.3981    0.0000 H       1  UNL1        0.0235
    112 H           4.8560    7.5478    0.0000 H       1  UNL1        0.0235
    113 H           8.6424    8.1422    0.0000 H       1  UNL1        0.2098
    114 H           6.5380   -2.6423    0.0000 H       1  UNL1        0.0938
    115 H           9.9312   -1.1358    0.0000 H       1  UNL1        0.2094
    116 H           6.0010   -3.9522    0.0000 H       1  UNL1        0.0675
    117 H           4.5981   -4.1422    0.0000 H       1  UNL1        0.0648
    118 H           4.2690   -1.7122    0.0000 H       1  UNL1        0.0741
    119 H           3.7320   -3.0222    0.0000 H       1  UNL1        0.0652
    120 H           7.4040   -4.5222    0.0000 H       1  UNL1        0.0938
    121 H           4.5981   -5.1422    0.0000 H       1  UNL1        0.2100
    122 H           3.4030   -4.4522    0.0000 H       1  UNL1        0.2100
    123 H           8.2700   -5.6422    0.0000 H       1  UNL1        0.0675
    124 H           7.7331   -6.9522    0.0000 H       1  UNL1        0.0648
    125 H           5.4641   -6.0222    0.0000 H       1  UNL1        0.0647
    126 H           6.3301   -7.1422    0.0000 H       1  UNL1        0.0647
    127 H           2.0000   -2.0222    0.0000 H       1  UNL1        0.2951
    128 H           4.9230   -6.2496    0.0000 H       1  UNL1        0.0584
    129 H           4.5244   -6.9399    0.0000 H       1  UNL1        0.0584
    130 H           9.4651   -4.7122    0.0000 H       1  UNL1        0.0938
    131 H           8.5991   -7.4522    0.0000 H       1  UNL1        0.2100
    132 H           7.4040   -8.1422    0.0000 H       1  UNL1        0.2100
    133 H          10.8681   -4.5222    0.0000 H       1  UNL1        0.0671
    134 H          11.7341   -5.6422    0.0000 H       1  UNL1        0.0648
    135 H           4.5981   -8.1422    0.0000 H       1  UNL1        0.2095
    136 H           9.7942   -7.1422    0.0000 H       1  UNL1        0.0621
    137 H          11.1972   -6.9522    0.0000 H       1  UNL1        0.0646
    138 H          10.8681   -3.5222    0.0000 H       1  UNL1        0.2101
    139 H           9.7112   -7.8322    0.0000 H       1  UNL1        0.0255
    140 H          10.3312   -8.4522    0.0000 H       1  UNL1        0.0255
    141 H          10.9512   -7.8322    0.0000 H       1  UNL1        0.0255
    142 H          12.6002   -5.1422    0.0000 H       1  UNL1        0.2100
    143 H          12.0632   -7.4522    0.0000 H       1  UNL1        0.2100
@<TRIPOS>BOND
     1    34     1    1
     2    50     1    1
     3     2    35    2
     4    42     3    1
     5     3   113    1
     6     4    45    1
     7     4   115    1
     8     5    50    1
     9     5    53    1
    10    51     6    1
    11    55     6    1
    12    52     7    1
    13     7   121    1
    14    54     8    1
    15     8   122    1
    16     9    55    1
    17     9    59    1
    18    10    56    1
    19    10   127    1
    20    11    56    2
    21    57    12    1
    22    62    12    1
    23    58    13    1
    24    13   131    1
    25    60    14    1
    26    14   132    1
    27    15    62    1
    28    15    65    1
    29    16    61    1
    30    16   135    1
    31    63    17    1
    32    17   138    1
    33    64    18    1
    34    18   142    1
    35    66    19    1
    36    19   143    1
    37    20    22    1
    38    20    23    1
    39    20    25    1
    40    20    36    1
    41    21    22    1
    42    21    24    1
    43    21    32    1
    44    21    38    1
    45    22    35    1
    46    22    68    1
    47    23    28    1
    48    23    31    1
    49    23    39    1
    50    24    26    1
    51    24    27    1
    52    24    69    1
    53    25    27    1
    54    25    70    1
    55    25    71    1
    56    26    34    1
    57    26    45    1
    58    26    46    1
    59    27    72    1
    60    27    73    1
    61    28    29    1
    62    28    41    2
    63    29    30    1
    64    29    40    1
    65    29    74    1
    66    30    33    1
    67    30    42    1
    68    30    47    1
    69    31    33    1
    70    31    75    1
    71    31    76    1
    72    32    37    1
    73    32    77    1
    74    32    78    1
    75    33    79    1
    76    33    80    1
    77    34    37    1
    78    34    81    1
    79    35    41    1
    80    36    82    1
    81    36    83    1
    82    36    84    1
    83    37    85    1
    84    37    86    1
    85    38    87    1
    86    38    88    1
    87    38    89    1
    88    39    90    1
    89    39    91    1
    90    39    92    1
    91    40    43    1
    92    40    93    1
    93    40    94    1
    94    41    95    1
    95    42    44    1
    96    42    96    1
    97    43    44    1
    98    43    48    1
    99    43    49    1
   100    44    97    1
   101    44    98    1
   102    45    99    1
   103    45   100    1
   104    46   101    1
   105    46   102    1
   106    46   103    1
   107    47   104    1
   108    47   105    1
   109    47   106    1
   110    48   110    1
   111    48   111    1
   112    48   112    1
   113    49   107    1
   114    49   108    1
   115    49   109    1
   116    50    51    1
   117    50   114    1
   118    51    52    1
   119    51   116    1
   120    52    54    1
   121    52   117    1
   122    53    54    1
   123    53    56    1
   124    53   118    1
   125    54   119    1
   126    55    57    1
   127    55   120    1
   128    57    58    1
   129    57   123    1
   130    58    60    1
   131    58   124    1
   132    59    60    1
   133    59    61    1
   134    59   125    1
   135    60   126    1
   136    61   128    1
   137    61   129    1
   138    62    63    1
   139    62   130    1
   140    63    64    1
   141    63   133    1
   142    64    66    1
   143    64   134    1
   144    65    66    1
   145    65    67    1
   146    65   136    1
   147    66   137    1
   148    67   139    1
   149    67   140    1
   150    67   141    1
