@<TRIPOS>MOLECULE
IMPHY010222
 50 52 0 0 0
SMALL
GASTEIGER

@<TRIPOS>ATOM
      1 O           4.5981    3.2872    0.0000 O.3     1  UNL1       -0.4907
      2 O           2.8660    0.2872    0.0000 O.3     1  UNL1       -0.4913
      3 O           2.8660    2.2872    0.0000 O.3     1  UNL1       -0.4885
      4 O           9.7872   -2.7873    0.0000 O.3     1  UNL1       -0.4951
      5 N           7.2641    0.7664    0.0000 N.ar    1  UNL1       -0.2031
      6 C           6.3580    0.2526    0.0000 C.ar    1  UNL1        0.1960
      7 C           5.4641    0.7872    0.0000 C.ar    1  UNL1        0.0565
      8 C           5.4641    1.7872    0.0000 C.ar    1  UNL1        0.0392
      9 C           6.3465   -0.7474    0.0000 C.3     1  UNL1        0.0582
     10 C           4.5981    0.2872    0.0000 C.ar    1  UNL1       -0.0024
     11 C           4.5981    2.2872    0.0000 C.ar    1  UNL1        0.1732
     12 C           6.3580    2.3219    0.0000 C.ar    1  UNL1        0.0134
     13 C           7.2641    1.8080    0.0000 C.ar    1  UNL1        0.1719
     14 C           7.2067   -1.2574    0.0000 C.ar    1  UNL1       -0.0371
     15 C           3.7320    0.7872    0.0000 C.ar    1  UNL1        0.1660
     16 C           3.7320    1.7872    0.0000 C.ar    1  UNL1        0.2041
     17 C           8.1282    0.2631    0.0000 C.3     1  UNL1        0.1407
     18 C           7.1951   -2.2573    0.0000 C.ar    1  UNL1       -0.0546
     19 C           8.0784   -0.7674    0.0000 C.ar    1  UNL1       -0.0546
     20 C           8.0553   -2.7673    0.0000 C.ar    1  UNL1       -0.0197
     21 C           8.9386   -1.2774    0.0000 C.ar    1  UNL1       -0.0197
     22 C           8.9270   -2.2773    0.0000 C.ar    1  UNL1        0.1201
     23 C           3.7320    3.7872    0.0000 C.3     1  UNL1        0.0790
     24 C           2.8660   -0.7128    0.0000 C.3     1  UNL1        0.0790
     25 C           2.0000    1.7872    0.0000 C.3     1  UNL1        0.0791
     26 C           9.7757   -3.7872    0.0000 C.3     1  UNL1        0.0788
     27 H           5.7372   -0.6327    0.0000 H       1  UNL1        0.0421
     28 H           6.1277   -1.3275    0.0000 H       1  UNL1        0.0421
     29 H           4.5981   -0.3328    0.0000 H       1  UNL1        0.0663
     30 H           6.3509    2.9418    0.0000 H       1  UNL1        0.0684
     31 H           7.7998    2.1201    0.0000 H       1  UNL1        0.1376
     32 H           7.8161   -0.2727    0.0000 H       1  UNL1        0.0993
     33 H           8.6639   -0.0490    0.0000 H       1  UNL1        0.0993
     34 H           8.4403    0.7988    0.0000 H       1  UNL1        0.0993
     35 H           6.6546   -2.5610    0.0000 H       1  UNL1        0.0622
     36 H           8.0856   -0.1474    0.0000 H       1  UNL1        0.0622
     37 H           8.0481   -3.3872    0.0000 H       1  UNL1        0.0654
     38 H           9.4791   -0.9736    0.0000 H       1  UNL1        0.0654
     39 H           4.0420    4.3242    0.0000 H       1  UNL1        0.0660
     40 H           3.1951    4.0972    0.0000 H       1  UNL1        0.0660
     41 H           3.4220    3.2503    0.0000 H       1  UNL1        0.0660
     42 H           2.2460   -0.7128    0.0000 H       1  UNL1        0.0660
     43 H           2.8660   -1.3328    0.0000 H       1  UNL1        0.0660
     44 H           3.4860   -0.7128    0.0000 H       1  UNL1        0.0660
     45 H           1.6900    2.3242    0.0000 H       1  UNL1        0.0660
     46 H           1.4631    1.4772    0.0000 H       1  UNL1        0.0660
     47 H           2.3100    1.2503    0.0000 H       1  UNL1        0.0660
     48 H           9.1557   -3.7801    0.0000 H       1  UNL1        0.0660
     49 H           9.7685   -4.4072    0.0000 H       1  UNL1        0.0660
     50 H          10.3956   -3.7944    0.0000 H       1  UNL1        0.0660
@<TRIPOS>UNITY_ATOM_ATTR
5 1
charge 1
@<TRIPOS>BOND
     1     1    11    1
     2     1    23    1
     3     2    15    1
     4     2    24    1
     5     3    16    1
     6     3    25    1
     7     4    22    1
     8     4    26    1
     9     5     6   ar
    10     5    13   ar
    11     5    17    1
    12     6     7   ar
    13     6     9    1
    14     7     8   ar
    15     7    10   ar
    16     8    11   ar
    17     8    12   ar
    18     9    14    1
    19     9    27    1
    20     9    28    1
    21    10    15   ar
    22    10    29    1
    23    11    16   ar
    24    12    13   ar
    25    12    30    1
    26    13    31    1
    27    14    18   ar
    28    14    19   ar
    29    15    16   ar
    30    17    32    1
    31    17    33    1
    32    17    34    1
    33    18    20   ar
    34    18    35    1
    35    19    21   ar
    36    19    36    1
    37    20    22   ar
    38    20    37    1
    39    21    22   ar
    40    21    38    1
    41    23    39    1
    42    23    40    1
    43    23    41    1
    44    24    42    1
    45    24    43    1
    46    24    44    1
    47    25    45    1
    48    25    46    1
    49    25    47    1
    50    26    48    1
    51    26    49    1
    52    26    50    1
