@<TRIPOS>MOLECULE
IMPHY010731
 45 49 0 0 0
SMALL
GASTEIGER

@<TRIPOS>ATOM
      1 O           2.9894    0.6230    0.0000 O.3     1  UNL1       -0.4558
      2 O           6.8383   -2.5096    0.0000 O.3     1  UNL1       -0.4605
      3 O           2.7075   -0.4293    0.0000 O.2     1  UNL1       -0.2498
      4 O           6.1779   -4.0117    0.0000 O.2     1  UNL1       -0.2453
      5 O           2.0000    3.6050    0.0000 O.2     1  UNL1       -0.4706
      6 C           4.5721   -0.7134    0.0000 C.3     1  UNL1       -0.0081
      7 C           5.4381   -1.2134    0.0000 C.3     1  UNL1        0.0407
      8 C           4.5721    0.2866    0.0000 C.3     1  UNL1        0.0958
      9 C           6.3041   -0.7134    0.0000 C.3     1  UNL1       -0.0360
     10 C           3.6621   -1.2203    0.0000 C.3     1  UNL1       -0.0445
     11 C           4.4676    1.2811    0.0000 C.3     1  UNL1        0.0085
     12 C           5.4381    0.7866    0.0000 C.2     1  UNL1       -0.0595
     13 C           5.4542   -2.2550    0.0000 C.2     1  UNL1        0.0423
     14 C           6.3041    0.2866    0.0000 C.3     1  UNL1       -0.0300
     15 C           6.4536   -1.4157    0.0000 C.3     1  UNL1        0.1029
     16 C           3.6585   -0.1202    0.0000 C.2     1  UNL1        0.3184
     17 C           3.6541   -2.2619    0.0000 C.3     1  UNL1       -0.0337
     18 C           3.4894    1.4890    0.0000 C.3     1  UNL1        0.1323
     19 C           4.5561   -2.7827    0.0000 C.2     1  UNL1       -0.0734
     20 C           6.1608   -3.0118    0.0000 C.2     1  UNL1        0.3355
     21 C           5.4381    1.7866    0.0000 C.2     1  UNL1       -0.0984
     22 C           3.0827    2.4025    0.0000 C.ar    1  UNL1        0.0304
     23 C           3.5827    3.2686    0.0000 C.ar    1  UNL1       -0.0172
     24 C           2.1045    2.6104    0.0000 C.ar    1  UNL1        0.0983
     25 C           2.9136    4.0117    0.0000 C.ar    1  UNL1        0.0921
     26 H           3.8393   -0.2828    0.0000 H       1  UNL1        0.0324
     27 H           6.5162   -1.2961    0.0000 H       1  UNL1        0.0278
     28 H           6.9147   -0.6058    0.0000 H       1  UNL1        0.0278
     29 H           3.4575   -0.6350    0.0000 H       1  UNL1        0.0272
     30 H           3.0504   -1.3217    0.0000 H       1  UNL1        0.0272
     31 H           5.0876    1.2811    0.0000 H       1  UNL1        0.0318
     32 H           4.5324    1.8977    0.0000 H       1  UNL1        0.0318
     33 H           6.9147    0.1789    0.0000 H       1  UNL1        0.0310
     34 H           6.5162    0.8692    0.0000 H       1  UNL1        0.0310
     35 H           7.0657   -1.3170    0.0000 H       1  UNL1        0.0706
     36 H           6.4650   -0.7958    0.0000 H       1  UNL1        0.0706
     37 H           3.0440   -2.1511    0.0000 H       1  UNL1        0.0308
     38 H           3.4405   -2.8440    0.0000 H       1  UNL1        0.0308
     39 H           2.8703    1.5214    0.0000 H       1  UNL1        0.0787
     40 H           4.5585   -3.4027    0.0000 H       1  UNL1        0.0577
     41 H           5.9751    2.0966    0.0000 H       1  UNL1        0.0535
     42 H           4.9012    2.0966    0.0000 H       1  UNL1        0.0535
     43 H           4.1993    3.3334    0.0000 H       1  UNL1        0.0653
     44 H           1.6438    2.1956    0.0000 H       1  UNL1        0.1033
     45 H           3.0424    4.6182    0.0000 H       1  UNL1        0.1029
@<TRIPOS>BOND
     1     1    16    1
     2     1    18    1
     3     2    15    1
     4     2    20    1
     5     3    16    2
     6     4    20    2
     7     5    24   ar
     8     5    25   ar
     9     6     7    1
    10     6     8    1
    11     6    10    1
    12     6    26    1
    13     7     9    1
    14     7    13    1
    15     7    15    1
    16     8    11    1
    17     8    12    1
    18     8    16    1
    19     9    14    1
    20     9    27    1
    21     9    28    1
    22    10    17    1
    23    10    29    1
    24    10    30    1
    25    11    18    1
    26    11    31    1
    27    11    32    1
    28    12    14    1
    29    12    21    2
    30    13    19    2
    31    13    20    1
    32    14    33    1
    33    14    34    1
    34    15    35    1
    35    15    36    1
    36    17    19    1
    37    17    37    1
    38    17    38    1
    39    18    22    1
    40    18    39    1
    41    19    40    1
    42    21    41    1
    43    21    42    1
    44    22    23   ar
    45    22    24   ar
    46    23    25   ar
    47    23    43    1
    48    24    44    1
    49    25    45    1
