@<TRIPOS>MOLECULE
IMPHY001448
 83 86 0 0 0
SMALL
GASTEIGER

@<TRIPOS>ATOM
      1 O           9.9229   -1.2115    0.0000 O.3     1  UNL1       -0.3914
      2 O           2.0000   -3.7639    0.0000 O.2     1  UNL1       -0.2968
      3 O           9.9391    1.7004    0.0000 O.3     1  UNL1       -0.4677
      4 O          10.2963    0.0056    0.0000 O.2     1  UNL1       -0.2505
      5 C           7.3931   -0.7115    0.0000 C.3     1  UNL1       -0.0170
      6 C           7.3931   -1.7115    0.0000 C.3     1  UNL1       -0.0027
      7 C           5.6610   -1.7115    0.0000 C.3     1  UNL1       -0.0136
      8 C           8.3393   -0.4068    0.0000 C.3     1  UNL1        0.0041
      9 C           4.7510   -2.2184    0.0000 C.3     1  UNL1       -0.0212
     10 C           6.5271   -2.2115    0.0000 C.2     1  UNL1       -0.0633
     11 C           6.5271   -0.2115    0.0000 C.3     1  UNL1       -0.0459
     12 C           8.3393   -2.0163    0.0000 C.3     1  UNL1       -0.0169
     13 C           5.6610   -0.7115    0.0000 C.3     1  UNL1       -0.0455
     14 C           4.7430   -3.2600    0.0000 C.3     1  UNL1       -0.0198
     15 C           8.9229   -1.2115    0.0000 C.3     1  UNL1        0.0601
     16 C           7.3931    0.2885    0.0000 C.3     1  UNL1       -0.0584
     17 C           7.3931   -2.7115    0.0000 C.3     1  UNL1       -0.0552
     18 C           3.8076   -3.8097    0.0000 C.3     1  UNL1        0.0270
     19 C           3.8242   -1.6543    0.0000 C.3     1  UNL1       -0.0401
     20 C           5.6451   -3.7808    0.0000 C.3     1  UNL1       -0.0302
     21 C           8.6500    0.5437    0.0000 C.3     1  UNL1        0.0624
     22 C           6.5431   -3.2530    0.0000 C.2     1  UNL1       -0.0836
     23 C           4.7587   -1.2184    0.0000 C.3     1  UNL1       -0.0587
     24 C           2.8763   -2.1822    0.0000 C.3     1  UNL1        0.0069
     25 C           2.8680   -3.2672    0.0000 C.2     1  UNL1        0.1392
     26 C           7.9821    1.2880    0.0000 C.3     1  UNL1       -0.0363
     27 C           3.3109   -4.6777    0.0000 C.3     1  UNL1       -0.0528
     28 C           4.3109   -4.6738    0.0000 C.3     1  UNL1       -0.0528
     29 C           9.6285    0.7499    0.0000 C.2     1  UNL1        0.3103
     30 C           8.2928    2.2385    0.0000 C.3     1  UNL1       -0.0338
     31 C           7.6249    2.9828    0.0000 C.2     1  UNL1       -0.0853
     32 C          10.9176    1.9067    0.0000 C.3     1  UNL1        0.0817
     33 C           7.9356    3.9334    0.0000 C.2     1  UNL1       -0.0796
     34 C           7.2678    4.6777    0.0000 C.3     1  UNL1       -0.0440
     35 C           8.9141    4.1396    0.0000 C.3     1  UNL1       -0.0440
     36 H           6.3972   -1.2865    0.0000 H       1  UNL1        0.0351
     37 H           9.1790   -0.2749    0.0000 H       1  UNL1        0.0339
     38 H           6.9256    0.2634    0.0000 H       1  UNL1        0.0271
     39 H           6.1285    0.2634    0.0000 H       1  UNL1        0.0271
     40 H           8.0883   -2.5832    0.0000 H       1  UNL1        0.0299
     41 H           8.8767   -2.3255    0.0000 H       1  UNL1        0.0299
     42 H           5.4490   -0.1289    0.0000 H       1  UNL1        0.0271
     43 H           5.0504   -0.8192    0.0000 H       1  UNL1        0.0271
     44 H           4.7463   -4.1100    0.0000 H       1  UNL1        0.0318
     45 H           9.2046   -0.6592    0.0000 H       1  UNL1        0.0596
     46 H           8.0131    0.2885    0.0000 H       1  UNL1        0.0235
     47 H           7.3931    0.9085    0.0000 H       1  UNL1        0.0235
     48 H           6.7731    0.2885    0.0000 H       1  UNL1        0.0235
     49 H           6.7731   -2.7115    0.0000 H       1  UNL1        0.0238
     50 H           7.3931   -3.3315    0.0000 H       1  UNL1        0.0238
     51 H           8.0131   -2.7115    0.0000 H       1  UNL1        0.0238
     52 H           4.2324   -1.1877    0.0000 H       1  UNL1        0.0275
     53 H           3.4343   -1.1723    0.0000 H       1  UNL1        0.0275
     54 H           5.2478   -4.2568    0.0000 H       1  UNL1        0.0311
     55 H           6.0460   -4.2537    0.0000 H       1  UNL1        0.0311
     56 H           8.0433    0.4159    0.0000 H       1  UNL1        0.0417
     57 H           7.0836   -3.5568    0.0000 H       1  UNL1        0.0572
     58 H           5.3787   -1.2232    0.0000 H       1  UNL1        0.0235
     59 H           4.7635   -0.5984    0.0000 H       1  UNL1        0.0235
     60 H           4.1388   -1.2136    0.0000 H       1  UNL1        0.0235
     61 H           2.6718   -1.5970    0.0000 H       1  UNL1        0.0342
     62 H           2.2647   -2.2836    0.0000 H       1  UNL1        0.0342
     63 H           7.4352    1.5800    0.0000 H       1  UNL1        0.0276
     64 H           7.5996    0.8001    0.0000 H       1  UNL1        0.0276
     65 H          10.2329   -1.7485    0.0000 H       1  UNL1        0.2098
     66 H           2.7728   -4.3697    0.0000 H       1  UNL1        0.0239
     67 H           3.0030   -5.2158    0.0000 H       1  UNL1        0.0239
     68 H           3.8490   -4.9856    0.0000 H       1  UNL1        0.0239
     69 H           3.7752   -4.9859    0.0000 H       1  UNL1        0.0239
     70 H           4.6230   -5.2095    0.0000 H       1  UNL1        0.0239
     71 H           4.8466   -4.3617    0.0000 H       1  UNL1        0.0239
     72 H           8.8397    1.9465    0.0000 H       1  UNL1        0.0308
     73 H           8.6753    2.7264    0.0000 H       1  UNL1        0.0308
     74 H           7.0183    2.8550    0.0000 H       1  UNL1        0.0571
     75 H          11.0455    1.3000    0.0000 H       1  UNL1        0.0661
     76 H          11.5243    2.0345    0.0000 H       1  UNL1        0.0661
     77 H          10.7898    2.5133    0.0000 H       1  UNL1        0.0661
     78 H           7.7292    5.0917    0.0000 H       1  UNL1        0.0274
     79 H           6.8537    5.1391    0.0000 H       1  UNL1        0.0274
     80 H           6.8063    4.2636    0.0000 H       1  UNL1        0.0274
     81 H           9.0420    3.5329    0.0000 H       1  UNL1        0.0274
     82 H           9.5208    4.2674    0.0000 H       1  UNL1        0.0274
     83 H           8.7863    4.7462    0.0000 H       1  UNL1        0.0274
@<TRIPOS>BOND
     1    15     1    1
     2     1    65    1
     3     2    25    2
     4     3    29    1
     5     3    32    1
     6     4    29    2
     7     5     6    1
     8     5     8    1
     9     5    11    1
    10     5    16    1
    11     6    10    1
    12     6    12    1
    13     6    17    1
    14     7     9    1
    15     7    10    1
    16     7    13    1
    17     7    36    1
    18     8    15    1
    19     8    21    1
    20     8    37    1
    21     9    14    1
    22     9    19    1
    23     9    23    1
    24    10    22    2
    25    11    13    1
    26    11    38    1
    27    11    39    1
    28    12    15    1
    29    12    40    1
    30    12    41    1
    31    13    42    1
    32    13    43    1
    33    14    18    1
    34    14    20    1
    35    14    44    1
    36    15    45    1
    37    16    46    1
    38    16    47    1
    39    16    48    1
    40    17    49    1
    41    17    50    1
    42    17    51    1
    43    18    25    1
    44    18    27    1
    45    18    28    1
    46    19    24    1
    47    19    52    1
    48    19    53    1
    49    20    22    1
    50    20    54    1
    51    20    55    1
    52    21    26    1
    53    21    29    1
    54    21    56    1
    55    22    57    1
    56    23    58    1
    57    23    59    1
    58    23    60    1
    59    24    25    1
    60    24    61    1
    61    24    62    1
    62    26    30    1
    63    26    63    1
    64    26    64    1
    65    27    66    1
    66    27    67    1
    67    27    68    1
    68    28    69    1
    69    28    70    1
    70    28    71    1
    71    30    31    1
    72    30    72    1
    73    30    73    1
    74    31    33    2
    75    31    74    1
    76    32    75    1
    77    32    76    1
    78    32    77    1
    79    33    34    1
    80    33    35    1
    81    34    78    1
    82    34    79    1
    83    34    80    1
    84    35    81    1
    85    35    82    1
    86    35    83    1
