@<TRIPOS>MOLECULE
IMPHY000859
 36 37 0 0 0
SMALL
GASTEIGER

@<TRIPOS>ATOM
      1 CL          6.0682   -1.3673    0.0000 Cl      1  UNL1        0.0000
      2 O           6.0682   -0.3673    0.0000 O.2     2  UNL2       -0.1997
      3 O           4.3198    2.6673    0.0000 O.3     2  UNL2       -0.4941
      4 O           7.8003    1.6327    0.0000 O.3     2  UNL2       -0.4995
      5 O           2.5381   -0.3914    0.0000 O.3     2  UNL2       -0.5063
      6 O           8.6663   -2.8673    0.0000 O.3     2  UNL2       -0.5033
      7 O          10.3984   -1.8673    0.0000 O.3     2  UNL2       -0.5033
      8 C           5.2022    1.1327    0.0000 C.ar    2  UNL2        0.1243
      9 C           5.2022    0.1327    0.0000 C.ar    2  UNL2        0.3708
     10 C           6.9343    0.1327    0.0000 C.ar    2  UNL2        0.4043
     11 C           6.0682    1.6327    0.0000 C.ar    2  UNL2        0.0090
     12 C           7.8003   -0.3673    0.0000 C.ar    2  UNL2        0.0865
     13 C           6.9343    1.1327    0.0000 C.ar    2  UNL2        0.2238
     14 C           4.3083    1.6674    0.0000 C.ar    2  UNL2        0.1398
     15 C           4.3083   -0.4019    0.0000 C.ar    2  UNL2        0.0847
     16 C           3.4022    1.1535    0.0000 C.ar    2  UNL2        0.0227
     17 C           3.4022    0.1119    0.0000 C.ar    2  UNL2        0.1293
     18 C           7.8003   -1.3673    0.0000 C.ar    2  UNL2       -0.0003
     19 C           8.6663    0.1327    0.0000 C.ar    2  UNL2       -0.0418
     20 C           8.6663   -1.8673    0.0000 C.ar    2  UNL2        0.1591
     21 C           9.5323   -0.3673    0.0000 C.ar    2  UNL2       -0.0157
     22 C           9.5323   -1.3673    0.0000 C.ar    2  UNL2        0.1583
     23 C           3.4597    3.1773    0.0000 C.3     2  UNL2        0.0788
     24 H           6.0682    2.2527    0.0000 H       2  UNL2        0.0667
     25 H           4.3154   -1.0219    0.0000 H       2  UNL2        0.0749
     26 H           2.8665    1.4656    0.0000 H       2  UNL2        0.0691
     27 H           7.2634   -1.6773    0.0000 H       2  UNL2        0.0664
     28 H           8.6663    0.7527    0.0000 H       2  UNL2        0.0628
     29 H          10.0693   -0.0573    0.0000 H       2  UNL2        0.0655
     30 H           7.8003    2.2527    0.0000 H       2  UNL2        0.2925
     31 H           3.7758    3.7106    0.0000 H       2  UNL2        0.0660
     32 H           2.9263    3.4935    0.0000 H       2  UNL2        0.0660
     33 H           3.1435    2.6440    0.0000 H       2  UNL2        0.0660
     34 H           2.0000   -0.0835    0.0000 H       2  UNL2        0.2921
     35 H           9.2033   -3.1773    0.0000 H       2  UNL2        0.2923
     36 H          10.9353   -1.5573    0.0000 H       2  UNL2        0.2923
@<TRIPOS>UNITY_ATOM_ATTR
1 1
charge -1
2 1
charge 1
@<TRIPOS>BOND
     1     2     9   ar
     2     2    10   ar
     3     3    14    1
     4     3    23    1
     5     4    13    1
     6     4    30    1
     7     5    17    1
     8     5    34    1
     9     6    20    1
    10     6    35    1
    11     7    22    1
    12     7    36    1
    13     8     9   ar
    14     8    11   ar
    15     8    14   ar
    16     9    15   ar
    17    10    12    1
    18    10    13   ar
    19    11    13   ar
    20    11    24    1
    21    12    18   ar
    22    12    19   ar
    23    14    16   ar
    24    15    17   ar
    25    15    25    1
    26    16    17   ar
    27    16    26    1
    28    18    20   ar
    29    18    27    1
    30    19    21   ar
    31    19    28    1
    32    20    22   ar
    33    21    22   ar
    34    21    29    1
    35    23    31    1
    36    23    32    1
    37    23    33    1
