@<TRIPOS>MOLECULE
IMPHY006895
 56 57 0 0 0
SMALL
GASTEIGER

@<TRIPOS>ATOM
      1 O           6.6380   -4.4028    0.0000 O.2     1  UNL1       -0.2971
      2 O           2.3866   -3.9019    0.0000 O.3     1  UNL1       -0.3907
      3 O           8.6094    2.1535    0.0000 O.3     1  UNL1       -0.3907
      4 O           6.5895    3.8623    0.0000 O.3     1  UNL1       -0.3910
      5 C           6.6496   -1.3335    0.0000 C.3     1  UNL1       -0.0253
      6 C           5.7556   -1.8682    0.0000 C.3     1  UNL1       -0.0253
      7 C           7.5556   -1.8474    0.0000 C.3     1  UNL1       -0.0315
      8 C           5.7556   -2.8682    0.0000 C.3     1  UNL1        0.0246
      9 C           7.1395   -0.4618    0.0000 C.3     1  UNL1       -0.0433
     10 C           4.9738   -1.2447    0.0000 C.3     1  UNL1       -0.0456
     11 C           7.5556   -2.8890    0.0000 C.3     1  UNL1        0.0092
     12 C           6.6496   -3.4028    0.0000 C.2     1  UNL1        0.1373
     13 C           6.1396   -0.4733    0.0000 C.3     1  UNL1       -0.0590
     14 C           4.9738   -3.4917    0.0000 C.3     1  UNL1       -0.0198
     15 C           8.4197   -1.3440    0.0000 C.3     1  UNL1       -0.0615
     16 C           3.9989   -1.4672    0.0000 C.3     1  UNL1       -0.0341
     17 C           6.6296    0.3984    0.0000 C.3     1  UNL1       -0.0290
     18 C           3.9989   -3.2691    0.0000 C.2     1  UNL1       -0.0477
     19 C           3.5650   -2.3682    0.0000 C.2     1  UNL1       -0.0826
     20 C           7.1195    1.2702    0.0000 C.2     1  UNL1       -0.0463
     21 C           3.3754   -4.0510    0.0000 C.3     1  UNL1        0.0653
     22 C           8.1194    1.2817    0.0000 C.3     1  UNL1        0.0654
     23 C           6.6095    2.1304    0.0000 C.2     1  UNL1       -0.0576
     24 C           7.0995    3.0021    0.0000 C.3     1  UNL1        0.0627
     25 H           5.8126   -1.0201    0.0000 H       1  UNL1        0.0313
     26 H           7.5521   -1.2274    0.0000 H       1  UNL1        0.0307
     27 H           5.8126   -3.7163    0.0000 H       1  UNL1        0.0383
     28 H           7.6191   -0.8548    0.0000 H       1  UNL1        0.0274
     29 H           7.6098   -0.0578    0.0000 H       1  UNL1        0.0274
     30 H           5.4586   -0.8581    0.0000 H       1  UNL1        0.0271
     31 H           4.7048   -0.6861    0.0000 H       1  UNL1        0.0271
     32 H           7.7647   -3.4727    0.0000 H       1  UNL1        0.0344
     33 H           8.1665   -2.7829    0.0000 H       1  UNL1        0.0344
     34 H           6.6729   -0.1571    0.0000 H       1  UNL1        0.0235
     35 H           5.8234    0.0600    0.0000 H       1  UNL1        0.0235
     36 H           5.6063   -0.7895    0.0000 H       1  UNL1        0.0235
     37 H           4.7048   -4.0503    0.0000 H       1  UNL1        0.0318
     38 H           5.4586   -3.8782    0.0000 H       1  UNL1        0.0318
     39 H           8.7318   -1.8798    0.0000 H       1  UNL1        0.0233
     40 H           8.9555   -1.0320    0.0000 H       1  UNL1        0.0233
     41 H           8.1077   -0.8083    0.0000 H       1  UNL1        0.0233
     42 H           3.9989   -0.8472    0.0000 H       1  UNL1        0.0308
     43 H           3.3944   -1.3292    0.0000 H       1  UNL1        0.0308
     44 H           6.1500    0.7914    0.0000 H       1  UNL1        0.0311
     45 H           6.1592   -0.0056    0.0000 H       1  UNL1        0.0311
     46 H           2.9450   -2.3682    0.0000 H       1  UNL1        0.0572
     47 H           3.1779   -4.6387    0.0000 H       1  UNL1        0.0604
     48 H           3.9199   -4.3475    0.0000 H       1  UNL1        0.0604
     49 H           8.0188    0.6699    0.0000 H       1  UNL1        0.0604
     50 H           8.7045    1.0764    0.0000 H       1  UNL1        0.0604
     51 H           5.9896    2.1232    0.0000 H       1  UNL1        0.0595
     52 H           2.0000   -4.3867    0.0000 H       1  UNL1        0.2098
     53 H           7.5790    2.6091    0.0000 H       1  UNL1        0.0601
     54 H           7.5698    3.4061    0.0000 H       1  UNL1        0.0601
     55 H           9.2294    2.1606    0.0000 H       1  UNL1        0.2098
     56 H           6.8933    4.4028    0.0000 H       1  UNL1        0.2098
@<TRIPOS>BOND
     1     1    12    2
     2     2    21    1
     3     2    52    1
     4     3    22    1
     5     3    55    1
     6     4    24    1
     7     4    56    1
     8     5     6    1
     9     5     7    1
    10     5     9    1
    11     5    13    1
    12     6     8    1
    13     6    10    1
    14     6    25    1
    15     7    11    1
    16     7    15    1
    17     7    26    1
    18     8    12    1
    19     8    14    1
    20     8    27    1
    21     9    17    1
    22     9    28    1
    23     9    29    1
    24    10    16    1
    25    10    30    1
    26    10    31    1
    27    11    12    1
    28    11    32    1
    29    11    33    1
    30    13    34    1
    31    13    35    1
    32    13    36    1
    33    14    18    1
    34    14    37    1
    35    14    38    1
    36    15    39    1
    37    15    40    1
    38    15    41    1
    39    16    19    1
    40    16    42    1
    41    16    43    1
    42    17    20    1
    43    17    44    1
    44    17    45    1
    45    18    19    2
    46    18    21    1
    47    19    46    1
    48    20    22    1
    49    20    23    2
    50    21    47    1
    51    21    48    1
    52    22    49    1
    53    22    50    1
    54    23    24    1
    55    23    51    1
    56    24    53    1
    57    24    54    1
