@<TRIPOS>MOLECULE
IMPHY011048
 28 27 0 0 0
SMALL
GASTEIGER

@<TRIPOS>ATOM
      1 C           3.7320    0.2500    0.0000 C.3     1  UNL1       -0.0257
      2 C           4.5981    0.7500    0.0000 C.3     1  UNL1       -0.0436
      3 C           5.4641    0.2500    0.0000 C.3     1  UNL1       -0.0340
      4 C           3.7320   -0.7500    0.0000 C.3     1  UNL1       -0.0590
      5 C           6.3301    0.7500    0.0000 C.2     1  UNL1       -0.0853
      6 C           2.8660    0.7500    0.0000 C.2     1  UNL1       -0.0883
      7 C           7.1962    0.2500    0.0000 C.2     1  UNL1       -0.0796
      8 C           8.0622    0.7500    0.0000 C.3     1  UNL1       -0.0440
      9 C           7.1962   -0.7500    0.0000 C.3     1  UNL1       -0.0440
     10 C           2.0000    0.2500    0.0000 C.2     1  UNL1       -0.1024
     11 H           4.9966    1.2250    0.0000 H       1  UNL1        0.0274
     12 H           4.1996    1.2250    0.0000 H       1  UNL1        0.0274
     13 H           4.4682   -0.1750    0.0000 H       1  UNL1        0.0340
     14 H           5.0656   -0.2249    0.0000 H       1  UNL1        0.0308
     15 H           5.8626   -0.2249    0.0000 H       1  UNL1        0.0308
     16 H           3.1120   -0.7500    0.0000 H       1  UNL1        0.0235
     17 H           3.7320   -1.3700    0.0000 H       1  UNL1        0.0235
     18 H           4.3520   -0.7500    0.0000 H       1  UNL1        0.0235
     19 H           6.3301    1.3700    0.0000 H       1  UNL1        0.0571
     20 H           2.8660    1.3700    0.0000 H       1  UNL1        0.0569
     21 H           6.5762   -0.7500    0.0000 H       1  UNL1        0.0274
     22 H           7.1962   -1.3700    0.0000 H       1  UNL1        0.0274
     23 H           7.8162   -0.7500    0.0000 H       1  UNL1        0.0274
     24 H           8.3722    0.2131    0.0000 H       1  UNL1        0.0274
     25 H           8.5991    1.0600    0.0000 H       1  UNL1        0.0274
     26 H           7.7522    1.2869    0.0000 H       1  UNL1        0.0274
     27 H           1.4631    0.5600    0.0000 H       1  UNL1        0.0532
     28 H           2.0000   -0.3700    0.0000 H       1  UNL1        0.0532
@<TRIPOS>BOND
     1     1     2    1
     2     1     4    1
     3     1     6    1
     4     1    13    1
     5     2     3    1
     6     2    11    1
     7     2    12    1
     8     3     5    1
     9     3    14    1
    10     3    15    1
    11     4    16    1
    12     4    17    1
    13     4    18    1
    14     5     7    2
    15     5    19    1
    16     6    10    2
    17     6    20    1
    18     7     8    1
    19     7     9    1
    20     8    24    1
    21     8    25    1
    22     8    26    1
    23     9    21    1
    24     9    22    1
    25     9    23    1
    26    10    27    1
    27    10    28    1
