@<TRIPOS>MOLECULE
IMPHY008875
 28 27 0 0 0
SMALL
GASTEIGER

@<TRIPOS>ATOM
      1 O           6.3301   -1.2500    0.0000 O.2     1  UNL1       -0.2756
      2 O           3.7320    1.2500    0.0000 O.2     1  UNL1       -0.2756
      3 N           7.1962    0.2500    0.0000 N.am    1  UNL1       -0.3076
      4 N           2.8660   -0.2500    0.0000 N.am    1  UNL1       -0.3076
      5 C           5.4641    0.2500    0.0000 C.3     1  UNL1        0.0324
      6 C           4.5981   -0.2500    0.0000 C.3     1  UNL1        0.0324
      7 C           6.3301   -0.2500    0.0000 C.2     1  UNL1        0.2155
      8 C           3.7320    0.2500    0.0000 C.2     1  UNL1        0.2155
      9 C           8.0622   -0.2500    0.0000 C.3     1  UNL1        0.0028
     10 C           7.1962    1.2500    0.0000 C.3     1  UNL1        0.0028
     11 C           2.0000    0.2500    0.0000 C.3     1  UNL1        0.0028
     12 C           2.8660   -1.2500    0.0000 C.3     1  UNL1        0.0028
     13 H           5.8626    0.7249    0.0000 H       1  UNL1        0.0363
     14 H           5.0656    0.7249    0.0000 H       1  UNL1        0.0363
     15 H           4.1996   -0.7249    0.0000 H       1  UNL1        0.0363
     16 H           4.9966   -0.7249    0.0000 H       1  UNL1        0.0363
     17 H           7.7522   -0.7869    0.0000 H       1  UNL1        0.0428
     18 H           8.5991   -0.5600    0.0000 H       1  UNL1        0.0428
     19 H           8.3722    0.2869    0.0000 H       1  UNL1        0.0428
     20 H           7.8162    1.2500    0.0000 H       1  UNL1        0.0428
     21 H           7.1962    1.8700    0.0000 H       1  UNL1        0.0428
     22 H           6.5762    1.2500    0.0000 H       1  UNL1        0.0428
     23 H           2.3100    0.7869    0.0000 H       1  UNL1        0.0428
     24 H           1.4631    0.5600    0.0000 H       1  UNL1        0.0428
     25 H           1.6900   -0.2869    0.0000 H       1  UNL1        0.0428
     26 H           2.2460   -1.2500    0.0000 H       1  UNL1        0.0428
     27 H           2.8660   -1.8700    0.0000 H       1  UNL1        0.0428
     28 H           3.4860   -1.2500    0.0000 H       1  UNL1        0.0428
@<TRIPOS>BOND
     1     1     7    2
     2     2     8    2
     3     3     7   am
     4     3     9    1
     5     3    10    1
     6     4     8   am
     7     4    11    1
     8     4    12    1
     9     5     6    1
    10     5     7    1
    11     5    13    1
    12     5    14    1
    13     6     8    1
    14     6    15    1
    15     6    16    1
    16     9    17    1
    17     9    18    1
    18     9    19    1
    19    10    20    1
    20    10    21    1
    21    10    22    1
    22    11    23    1
    23    11    24    1
    24    11    25    1
    25    12    26    1
    26    12    27    1
    27    12    28    1
