@<TRIPOS>MOLECULE
IMPHY002699
 39 40 0 0 0
SMALL
GASTEIGER

@<TRIPOS>ATOM
      1 C           5.3792   -0.7512    0.0000 C.3     1  UNL1       -0.0130
      2 C           4.6005   -1.3786    0.0000 C.3     1  UNL1       -0.0368
      3 C           6.3269   -1.0512    0.0000 C.3     1  UNL1       -0.0423
      4 C           5.3742    0.2488    0.0000 C.2     1  UNL1       -0.0451
      5 C           3.6244   -1.1609    0.0000 C.3     1  UNL1       -0.0462
      6 C           6.9065   -0.2436    0.0000 C.3     1  UNL1       -0.0309
      7 C           6.3189    0.5582    0.0000 C.2     1  UNL1       -0.0692
      8 C           3.1861   -0.2621    0.0000 C.3     1  UNL1       -0.0309
      9 C           3.6155    0.6410    0.0000 C.2     1  UNL1       -0.0667
     10 C           4.5893    0.8684    0.0000 C.2     1  UNL1       -0.0589
     11 C           4.8278   -2.3524    0.0000 C.3     1  UNL1       -0.0619
     12 C           2.9881    1.4197    0.0000 C.3     1  UNL1       -0.0253
     13 C           6.6248    1.5103    0.0000 C.3     1  UNL1       -0.0432
     14 C           2.0000    1.2657    0.0000 C.3     1  UNL1       -0.0589
     15 C           3.3488    2.3524    0.0000 C.3     1  UNL1       -0.0589
     16 H           5.5362   -1.5866    0.0000 H       1  UNL1        0.0351
     17 H           4.1642   -1.8192    0.0000 H       1  UNL1        0.0304
     18 H           6.0787   -1.6194    0.0000 H       1  UNL1        0.0274
     19 H           6.8658   -1.3578    0.0000 H       1  UNL1        0.0274
     20 H           3.0207   -1.3019    0.0000 H       1  UNL1        0.0271
     21 H           3.6275   -1.7809    0.0000 H       1  UNL1        0.0271
     22 H           7.3694   -0.6560    0.0000 H       1  UNL1        0.0310
     23 H           7.3653    0.1734    0.0000 H       1  UNL1        0.0310
     24 H           2.6994    0.1220    0.0000 H       1  UNL1        0.0310
     25 H           2.7033   -0.6511    0.0000 H       1  UNL1        0.0310
     26 H           4.7242    1.4735    0.0000 H       1  UNL1        0.0620
     27 H           4.2241   -2.4934    0.0000 H       1  UNL1        0.0233
     28 H           4.9688   -2.9562    0.0000 H       1  UNL1        0.0233
     29 H           5.4316   -2.2114    0.0000 H       1  UNL1        0.0233
     30 H           2.7644    0.8414    0.0000 H       1  UNL1        0.0340
     31 H           7.2151    1.3206    0.0000 H       1  UNL1        0.0275
     32 H           6.8145    2.1006    0.0000 H       1  UNL1        0.0275
     33 H           6.0345    1.7000    0.0000 H       1  UNL1        0.0275
     34 H           1.9045    1.8783    0.0000 H       1  UNL1        0.0235
     35 H           1.3874    1.1703    0.0000 H       1  UNL1        0.0235
     36 H           2.0955    0.6531    0.0000 H       1  UNL1        0.0235
     37 H           3.9270    2.1288    0.0000 H       1  UNL1        0.0235
     38 H           3.5724    2.9306    0.0000 H       1  UNL1        0.0235
     39 H           2.7705    2.5760    0.0000 H       1  UNL1        0.0235
@<TRIPOS>BOND
     1     1     2    1
     2     1     3    1
     3     1     4    1
     4     1    16    1
     5     2     5    1
     6     2    11    1
     7     2    17    1
     8     3     6    1
     9     3    18    1
    10     3    19    1
    11     4     7    2
    12     4    10    1
    13     5     8    1
    14     5    20    1
    15     5    21    1
    16     6     7    1
    17     6    22    1
    18     6    23    1
    19     7    13    1
    20     8     9    1
    21     8    24    1
    22     8    25    1
    23     9    10    2
    24     9    12    1
    25    10    26    1
    26    11    27    1
    27    11    28    1
    28    11    29    1
    29    12    14    1
    30    12    15    1
    31    12    30    1
    32    13    31    1
    33    13    32    1
    34    13    33    1
    35    14    34    1
    36    14    35    1
    37    14    36    1
    38    15    37    1
    39    15    38    1
    40    15    39    1
