@<TRIPOS>MOLECULE
IMPHY014017
 22 24 0 0 0
SMALL
GASTEIGER

@<TRIPOS>ATOM
      1 O           2.5836   -1.5894    0.0000 O.3     1  UNL1       -0.4834
      2 O           2.2729    0.9706    0.0000 O.2     1  UNL1       -0.2883
      3 C           3.5298   -0.2846    0.0000 C.ar    1  UNL1        0.0701
      4 C           4.3958    0.2154    0.0000 C.ar    1  UNL1       -0.0038
      5 C           3.5298   -1.2846    0.0000 C.ar    1  UNL1        0.1323
      6 C           5.2619   -0.2846    0.0000 C.ar    1  UNL1       -0.0170
      7 C           2.5836    0.0201    0.0000 C.2     1  UNL1        0.2043
      8 C           2.0000   -0.7846    0.0000 C.3     1  UNL1        0.1520
      9 C           4.3958   -1.7846    0.0000 C.ar    1  UNL1       -0.0186
     10 C           5.2619   -1.2846    0.0000 C.ar    1  UNL1       -0.0505
     11 C           4.3798    1.2569    0.0000 C.ar    1  UNL1       -0.0532
     12 C           6.1719    0.2222    0.0000 C.ar    1  UNL1       -0.0540
     13 C           5.2778    1.7846    0.0000 C.ar    1  UNL1       -0.0611
     14 C           6.1799    1.2638    0.0000 C.ar    1  UNL1       -0.0612
     15 H           1.5391   -0.3699    0.0000 H       1  UNL1        0.0781
     16 H           1.5391   -1.1994    0.0000 H       1  UNL1        0.0781
     17 H           4.3958   -2.4046    0.0000 H       1  UNL1        0.0654
     18 H           5.7988   -1.5946    0.0000 H       1  UNL1        0.0625
     19 H           3.8393    1.5607    0.0000 H       1  UNL1        0.0624
     20 H           6.7052   -0.0940    0.0000 H       1  UNL1        0.0624
     21 H           5.2754    2.4046    0.0000 H       1  UNL1        0.0618
     22 H           6.7180    1.5717    0.0000 H       1  UNL1        0.0618
@<TRIPOS>BOND
     1     1     5    1
     2     1     8    1
     3     2     7    2
     4     3     4   ar
     5     3     5   ar
     6     3     7    1
     7     4     6   ar
     8     4    11   ar
     9     5     9   ar
    10     6    10   ar
    11     6    12   ar
    12     7     8    1
    13     8    15    1
    14     8    16    1
    15     9    10   ar
    16     9    17    1
    17    10    18    1
    18    11    13   ar
    19    11    19    1
    20    12    14   ar
    21    12    20    1
    22    13    14   ar
    23    13    21    1
    24    14    22    1
