@<TRIPOS>MOLECULE
IMPHY009170
 74 78 0 0 0
SMALL
GASTEIGER

@<TRIPOS>ATOM
      1 O           3.0211    0.4849    0.0000 O.3     1  UNL1       -0.3511
      2 O           3.8874    2.9853    0.0000 O.3     1  UNL1       -0.4539
      3 O           2.1622   -0.3372    0.0000 O.3     1  UNL1       -0.4675
      4 O           2.1554    2.9853    0.0000 O.2     1  UNL1       -0.2478
      5 O           3.2603   -1.6768    0.0000 O.2     1  UNL1       -0.2501
      6 O           7.2688   -0.7275    0.0000 O.3     1  UNL1       -0.4645
      7 O           6.7021    4.1878    0.0000 O.2     1  UNL1       -0.4706
      8 O           6.2555   -4.1878    0.0000 O.2     1  UNL1       -0.2921
      9 O           7.2755    1.0045    0.0000 O.2     1  UNL1       -0.2512
     10 C           3.8874    0.9853    0.0000 C.3     1  UNL1        0.1317
     11 C           4.7534    1.4853    0.0000 C.3     1  UNL1        0.0423
     12 C           3.8714   -0.0562    0.0000 C.3     1  UNL1        0.1009
     13 C           4.7694   -0.5839    0.0000 C.3     1  UNL1       -0.0135
     14 C           3.0214    1.4853    0.0000 C.3     1  UNL1        0.1862
     15 C           5.6634    0.9785    0.0000 C.3     1  UNL1       -0.0408
     16 C           5.6715   -0.0631    0.0000 C.3     1  UNL1       -0.0476
     17 C           4.7655   -1.5839    0.0000 C.3     1  UNL1       -0.0030
     18 C           4.7534    2.4853    0.0000 C.3     1  UNL1        0.1391
     19 C           5.6195    1.9853    0.0000 C.3     1  UNL1       -0.0531
     20 C           2.8714   -0.0446    0.0000 C.3     1  UNL1       -0.0463
     21 C           3.0214    2.4853    0.0000 C.2     1  UNL1        0.3398
     22 C           5.7655   -1.5878    0.0000 C.3     1  UNL1        0.0145
     23 C           3.0980   -0.6901    0.0000 C.2     1  UNL1        0.3160
     24 C           3.9014   -1.0806    0.0000 C.3     1  UNL1       -0.0554
     25 C           6.2622   -2.4557    0.0000 C.3     1  UNL1        0.0341
     26 C           4.2622   -2.4480    0.0000 C.2     1  UNL1       -0.0741
     27 C           5.6195    2.9853    0.0000 C.ar    1  UNL1        0.0310
     28 C           6.2689   -0.7237    0.0000 C.3     1  UNL1        0.0969
     29 C           5.7588   -3.3198    0.0000 C.2     1  UNL1        0.1618
     30 C           4.7589   -3.3160    0.0000 C.2     1  UNL1       -0.0220
     31 C           7.1263   -2.9591    0.0000 C.3     1  UNL1       -0.0524
     32 C           7.1301   -1.9591    0.0000 C.3     1  UNL1       -0.0524
     33 C           6.5330    2.5786    0.0000 C.ar    1  UNL1       -0.0172
     34 C           5.7240    3.9798    0.0000 C.ar    1  UNL1        0.0984
     35 C           2.0000    0.6495    0.0000 C.3     1  UNL1        0.0817
     36 C           7.2021    3.3217    0.0000 C.ar    1  UNL1        0.0921
     37 C           7.7722    0.1366    0.0000 C.2     1  UNL1        0.3040
     38 C           8.7722    0.1327    0.0000 C.3     1  UNL1        0.0332
     39 H           5.5047   -1.0104    0.0000 H       1  UNL1        0.0321
     40 H           2.1714    1.4854    0.0000 H       1  UNL1        0.0743
     41 H           6.2751    0.8771    0.0000 H       1  UNL1        0.0273
     42 H           5.8680    1.5638    0.0000 H       1  UNL1        0.0273
     43 H           5.8850   -0.6452    0.0000 H       1  UNL1        0.0269
     44 H           6.2815    0.0477    0.0000 H       1  UNL1        0.0269
     45 H           4.7534    3.1053    0.0000 H       1  UNL1        0.0793
     46 H           5.9295    1.4484    0.0000 H       1  UNL1        0.0237
     47 H           6.1564    2.2953    0.0000 H       1  UNL1        0.0237
     48 H           5.3095    2.5223    0.0000 H       1  UNL1        0.0237
     49 H           2.8786    0.5753    0.0000 H       1  UNL1        0.0241
     50 H           2.2515   -0.0374    0.0000 H       1  UNL1        0.0241
     51 H           2.8643   -0.6646    0.0000 H       1  UNL1        0.0241
     52 H           5.4576   -1.0496    0.0000 H       1  UNL1        0.0351
     53 H           4.2135   -0.5449    0.0000 H       1  UNL1        0.0238
     54 H           3.3657   -0.7685    0.0000 H       1  UNL1        0.0238
     55 H           3.5894   -1.6163    0.0000 H       1  UNL1        0.0238
     56 H           3.6422   -2.4456    0.0000 H       1  UNL1        0.0579
     57 H           6.3789   -0.1135    0.0000 H       1  UNL1        0.0701
     58 H           5.6871   -0.5094    0.0000 H       1  UNL1        0.0701
     59 H           4.4468   -3.8517    0.0000 H       1  UNL1        0.0649
     60 H           6.8142   -3.4948    0.0000 H       1  UNL1        0.0239
     61 H           7.6620   -3.2711    0.0000 H       1  UNL1        0.0239
     62 H           7.4383   -2.4233    0.0000 H       1  UNL1        0.0239
     63 H           7.4381   -2.4972    0.0000 H       1  UNL1        0.0239
     64 H           7.6683   -1.6511    0.0000 H       1  UNL1        0.0239
     65 H           6.8222   -1.4209    0.0000 H       1  UNL1        0.0239
     66 H           6.6619    1.9721    0.0000 H       1  UNL1        0.0653
     67 H           5.2632    4.3947    0.0000 H       1  UNL1        0.1033
     68 H           2.6118    0.7501    0.0000 H       1  UNL1        0.0661
     69 H           1.8994    1.2613    0.0000 H       1  UNL1        0.0661
     70 H           1.3882    0.5490    0.0000 H       1  UNL1        0.0661
     71 H           7.8187    3.2569    0.0000 H       1  UNL1        0.1029
     72 H           8.7698   -0.4873    0.0000 H       1  UNL1        0.0342
     73 H           9.3922    0.1303    0.0000 H       1  UNL1        0.0342
     74 H           8.7746    0.7527    0.0000 H       1  UNL1        0.0342
@<TRIPOS>BOND
     1    10     1    1
     2     1    14    1
     3     2    18    1
     4     2    21    1
     5     3    23    1
     6     3    35    1
     7     4    21    2
     8     5    23    2
     9     6    28    1
    10     6    37    1
    11     7    34   ar
    12     7    36   ar
    13     8    29    2
    14     9    37    2
    15    10    11    1
    16    10    12    1
    17    10    14    1
    18    11    15    1
    19    11    18    1
    20    11    19    1
    21    12    13    1
    22    12    20    1
    23    12    23    1
    24    13    16    1
    25    13    17    1
    26    13    39    1
    27    14    21    1
    28    14    40    1
    29    15    16    1
    30    15    41    1
    31    15    42    1
    32    16    43    1
    33    16    44    1
    34    17    22    1
    35    17    24    1
    36    17    26    1
    37    18    27    1
    38    18    45    1
    39    19    46    1
    40    19    47    1
    41    19    48    1
    42    20    49    1
    43    20    50    1
    44    20    51    1
    45    22    25    1
    46    22    28    1
    47    22    52    1
    48    24    53    1
    49    24    54    1
    50    24    55    1
    51    25    29    1
    52    25    31    1
    53    25    32    1
    54    26    30    2
    55    26    56    1
    56    27    33   ar
    57    27    34   ar
    58    28    57    1
    59    28    58    1
    60    29    30    1
    61    30    59    1
    62    31    60    1
    63    31    61    1
    64    31    62    1
    65    32    63    1
    66    32    64    1
    67    32    65    1
    68    33    36   ar
    69    33    66    1
    70    34    67    1
    71    35    68    1
    72    35    69    1
    73    35    70    1
    74    36    71    1
    75    37    38    1
    76    38    72    1
    77    38    73    1
    78    38    74    1
