@<TRIPOS>MOLECULE
IMPHY006803
 78 81 0 0 0
SMALL
GASTEIGER

@<TRIPOS>ATOM
      1 O           7.6761    0.9910    0.0000 O.3     1  UNL1       -0.3709
      2 O           5.1350   -3.5968    0.0000 O.3     1  UNL1       -0.3313
      3 O           6.8671   -3.5968    0.0000 O.3     1  UNL1       -0.4535
      4 O           4.3638    1.3511    0.0000 O.3     1  UNL1       -0.3946
      5 O           5.1350   -6.5968    0.0000 O.3     1  UNL1       -0.3864
      6 O           3.4030   -5.5968    0.0000 O.3     1  UNL1       -0.3865
      7 O           6.8671   -5.5968    0.0000 O.3     1  UNL1       -0.3829
      8 O           4.7848    2.6465    0.0000 O.2     1  UNL1       -0.2917
      9 O           8.5991   -2.5968    0.0000 O.3     1  UNL1       -0.4913
     10 O           5.1350   -2.5968    0.0000 O.3     1  UNL1       -0.4913
     11 O           2.5369   -4.0968    0.0000 O.3     1  UNL1       -0.3924
     12 O           5.4172    6.1962    0.0000 O.3     1  UNL1       -0.4913
     13 O           8.5818    4.7872    0.0000 O.3     1  UNL1       -0.4913
     14 O           7.4062    6.4052    0.0000 O.3     1  UNL1       -0.5009
     15 C           6.0580    0.9910    0.0000 C.3     1  UNL1        0.0245
     16 C           6.3671    1.9420    0.0000 C.3     1  UNL1        0.0530
     17 C           6.8671    0.4032    0.0000 C.3     1  UNL1        0.0895
     18 C           7.3671    1.9420    0.0000 C.3     1  UNL1        0.0587
     19 C           5.1070    0.6820    0.0000 C.3     1  UNL1        0.0504
     20 C           6.8671   -0.5968    0.0000 C.ar    1  UNL1       -0.0114
     21 C           5.7793    2.7510    0.0000 C.2     1  UNL1        0.1691
     22 C           5.1350   -5.5968    0.0000 C.3     1  UNL1        0.1152
     23 C           4.2690   -5.0968    0.0000 C.3     1  UNL1        0.1120
     24 C           6.0010   -5.0968    0.0000 C.3     1  UNL1        0.1454
     25 C           4.2690   -4.0968    0.0000 C.3     1  UNL1        0.1140
     26 C           6.0010   -4.0968    0.0000 C.3     1  UNL1        0.2311
     27 C           6.0010   -1.0968    0.0000 C.ar    1  UNL1       -0.0104
     28 C           7.7331   -1.0968    0.0000 C.ar    1  UNL1       -0.0104
     29 C           6.1860    3.6646    0.0000 C.ar    1  UNL1        0.0249
     30 C           6.8671   -2.5968    0.0000 C.ar    1  UNL1        0.2067
     31 C           7.7331   -2.0968    0.0000 C.ar    1  UNL1        0.1656
     32 C           6.0010   -2.0968    0.0000 C.ar    1  UNL1        0.1656
     33 C           3.4030   -3.5968    0.0000 C.3     1  UNL1        0.0731
     34 C           7.1805    3.7691    0.0000 C.ar    1  UNL1       -0.0056
     35 C           5.5982    4.4736    0.0000 C.ar    1  UNL1       -0.0056
     36 C           6.0050    5.3872    0.0000 C.ar    1  UNL1        0.1656
     37 C           7.5873    4.6827    0.0000 C.ar    1  UNL1        0.1656
     38 C           6.9995    5.4917    0.0000 C.ar    1  UNL1        0.2010
     39 C           9.4651   -2.0968    0.0000 C.3     1  UNL1        0.0790
     40 C           4.2690   -2.0968    0.0000 C.3     1  UNL1        0.0790
     41 C           4.4227    6.0916    0.0000 C.3     1  UNL1        0.0790
     42 C           8.9885    5.7007    0.0000 C.3     1  UNL1        0.0790
     43 H           5.9251    0.1514    0.0000 H       1  UNL1        0.0359
     44 H           5.5275    1.8091    0.0000 H       1  UNL1        0.0408
     45 H           7.6244    0.0173    0.0000 H       1  UNL1        0.0650
     46 H           7.9735    2.0709    0.0000 H       1  UNL1        0.0567
     47 H           7.3022    2.5586    0.0000 H       1  UNL1        0.0567
     48 H           4.6184    0.3002    0.0000 H       1  UNL1        0.0561
     49 H           5.3981    0.1345    0.0000 H       1  UNL1        0.0561
     50 H           5.6720   -5.9068    0.0000 H       1  UNL1        0.0648
     51 H           4.2690   -5.7168    0.0000 H       1  UNL1        0.0647
     52 H           6.5380   -4.7868    0.0000 H       1  UNL1        0.0683
     53 H           4.2690   -3.4768    0.0000 H       1  UNL1        0.0647
     54 H           6.0010   -3.4768    0.0000 H       1  UNL1        0.1084
     55 H           5.4641   -0.7868    0.0000 H       1  UNL1        0.0659
     56 H           8.2700   -0.7868    0.0000 H       1  UNL1        0.0659
     57 H           3.8015   -3.1219    0.0000 H       1  UNL1        0.0584
     58 H           3.0044   -3.1219    0.0000 H       1  UNL1        0.0584
     59 H           3.7742    1.1595    0.0000 H       1  UNL1        0.2094
     60 H           5.6720   -6.9068    0.0000 H       1  UNL1        0.2100
     61 H           3.4030   -6.2168    0.0000 H       1  UNL1        0.2100
     62 H           7.4040   -5.2868    0.0000 H       1  UNL1        0.2102
     63 H           7.5450    3.2675    0.0000 H       1  UNL1        0.0662
     64 H           4.9816    4.4088    0.0000 H       1  UNL1        0.0662
     65 H           2.0000   -3.7868    0.0000 H       1  UNL1        0.2095
     66 H           9.7751   -2.6338    0.0000 H       1  UNL1        0.0660
     67 H          10.0021   -1.7868    0.0000 H       1  UNL1        0.0660
     68 H           9.1551   -1.5599    0.0000 H       1  UNL1        0.0660
     69 H           4.5790   -1.5599    0.0000 H       1  UNL1        0.0660
     70 H           3.7320   -1.7868    0.0000 H       1  UNL1        0.0660
     71 H           3.9590   -2.6338    0.0000 H       1  UNL1        0.0660
     72 H           7.0418    6.9068    0.0000 H       1  UNL1        0.2924
     73 H           4.3578    6.7082    0.0000 H       1  UNL1        0.0660
     74 H           3.8060    6.0268    0.0000 H       1  UNL1        0.0660
     75 H           4.4875    5.4750    0.0000 H       1  UNL1        0.0660
     76 H           9.5549    5.4486    0.0000 H       1  UNL1        0.0660
     77 H           9.2407    6.2671    0.0000 H       1  UNL1        0.0660
     78 H           8.4221    5.9529    0.0000 H       1  UNL1        0.0660
@<TRIPOS>BOND
     1     1    17    1
     2     1    18    1
     3     2    25    1
     4     2    26    1
     5    26     3    1
     6     3    30    1
     7     4    19    1
     8     4    59    1
     9    22     5    1
    10     5    60    1
    11    23     6    1
    12     6    61    1
    13    24     7    1
    14     7    62    1
    15     8    21    2
    16     9    31    1
    17     9    39    1
    18    10    32    1
    19    10    40    1
    20    11    33    1
    21    11    65    1
    22    12    36    1
    23    12    41    1
    24    13    37    1
    25    13    42    1
    26    14    38    1
    27    14    72    1
    28    15    16    1
    29    15    17    1
    30    15    19    1
    31    15    43    1
    32    16    18    1
    33    16    21    1
    34    16    44    1
    35    17    20    1
    36    17    45    1
    37    18    46    1
    38    18    47    1
    39    19    48    1
    40    19    49    1
    41    20    27   ar
    42    20    28   ar
    43    21    29    1
    44    22    23    1
    45    22    24    1
    46    22    50    1
    47    23    25    1
    48    23    51    1
    49    24    26    1
    50    24    52    1
    51    25    33    1
    52    25    53    1
    53    26    54    1
    54    27    32   ar
    55    27    55    1
    56    28    31   ar
    57    28    56    1
    58    29    34   ar
    59    29    35   ar
    60    30    31   ar
    61    30    32   ar
    62    33    57    1
    63    33    58    1
    64    34    37   ar
    65    34    63    1
    66    35    36   ar
    67    35    64    1
    68    36    38   ar
    69    37    38   ar
    70    39    66    1
    71    39    67    1
    72    39    68    1
    73    40    69    1
    74    40    70    1
    75    40    71    1
    76    41    73    1
    77    41    74    1
    78    41    75    1
    79    42    76    1
    80    42    77    1
    81    42    78    1
