@<TRIPOS>MOLECULE
IMPHY003418
 24 23 0 0 0
SMALL
GASTEIGER

@<TRIPOS>ATOM
      1 O           4.2690   -0.6900    0.0000 O.2     1  UNL1       -0.3248
      2 O           6.8671    1.8100    0.0000 O.3     1  UNL1       -0.4795
      3 OXT         6.0010    3.3100    0.0000 O.2     1  UNL1       -0.2493
      4 N           4.2690    2.3100    0.0000 N.3     1  UNL1       -0.3183
      5 N           3.4030   -1.1900    0.0000 N.pl3   1  UNL1        0.1157
      6 N           2.5369   -2.6900    0.0000 N.pl3   1  UNL1       -0.2863
      7 N           4.2690   -2.6900    0.0000 N.pl3   1  UNL1       -0.2863
      8 C           5.1350    0.8100    0.0000 C.3     1  UNL1        0.0111
      9 CA          5.1350    1.8100    0.0000 C.3     1  UNL1        0.1065
     10 C           4.2690    0.3100    0.0000 C.3     1  UNL1        0.1378
     11 C           6.0010    2.3100    0.0000 C.2     1  UNL1        0.3218
     12 C           3.4030   -2.1900    0.0000 C.cat   1  UNL1        0.4202
     13 H           5.3471    0.2274    0.0000 H       1  UNL1        0.0320
     14 H           5.7456    0.9177    0.0000 H       1  UNL1        0.0320
     15 HA          5.1350    2.4300    0.0000 H       1  UNL1        0.0575
     16 H           4.0569    0.8926    0.0000 H       1  UNL1        0.0741
     17 H           3.6584    0.2023    0.0000 H       1  UNL1        0.0741
     18 H1          3.7320    2.0000    0.0000 H       1  UNL1        0.1190
     19 H2          4.2690    2.9300    0.0000 H       1  UNL1        0.1190
     20 H           7.4040    2.1200    0.0000 H       1  UNL1        0.2951
     21 H           2.5369   -3.3100    0.0000 H       1  UNL1        0.2548
     22 H           2.0000   -2.3800    0.0000 H       1  UNL1        0.2548
     23 H           4.2690   -3.3100    0.0000 H       1  UNL1        0.2548
     24 H           4.8059   -2.3800    0.0000 H       1  UNL1        0.2548
@<TRIPOS>BOND
     1     1     5    1
     2     1    10    1
     3     2    11    1
     4     2    20    1
     5     3    11    2
     6     9     4    1
     7     4    18    1
     8     4    19    1
     9     5    12    2
    10     6    12    1
    11     6    21    1
    12     6    22    1
    13     7    12    1
    14     7    23    1
    15     7    24    1
    16     8     9    1
    17     8    10    1
    18     8    13    1
    19     8    14    1
    20     9    11    1
    21     9    15    1
    22    10    16    1
    23    10    17    1
