@<TRIPOS>MOLECULE
IMPHY015419
 42 44 0 0 0
SMALL
GASTEIGER

@<TRIPOS>ATOM
      1 O           6.1414    0.9240    0.0000 O.3     1  UNL1       -0.3915
      2 C           4.0430   -0.7073    0.0000 C.3     1  UNL1       -0.0207
      3 C           3.1420   -0.2734    0.0000 C.3     1  UNL1       -0.0296
      4 C           2.9195    0.7015    0.0000 C.3     1  UNL1       -0.0284
      5 C           3.5430    1.4834    0.0000 C.3     1  UNL1       -0.0302
      6 C           4.1499    0.4695    0.0000 C.3     1  UNL1       -0.0431
      7 C           3.9070   -1.6920    0.0000 C.3     1  UNL1       -0.0378
      8 C           4.9440   -0.2734    0.0000 C.3     1  UNL1       -0.0204
      9 C           4.5430    1.4834    0.0000 C.3     1  UNL1       -0.0144
     10 C           2.4569   -0.9937    0.0000 C.3     1  UNL1       -0.0489
     11 C           2.9288   -1.8687    0.0000 C.3     1  UNL1       -0.0497
     12 C           5.1665    0.7015    0.0000 C.3     1  UNL1        0.0586
     13 C           2.2616    1.4546    0.0000 C.3     1  UNL1       -0.0593
     14 C           2.0000    0.3085    0.0000 C.3     1  UNL1       -0.0593
     15 C           4.6286   -2.3843    0.0000 C.3     1  UNL1       -0.0619
     16 C           4.9769    2.3843    0.0000 C.3     1  UNL1       -0.0598
     17 H           2.3762    0.0954    0.0000 H       1  UNL1        0.0311
     18 H           3.3539    2.3120    0.0000 H       1  UNL1        0.0310
     19 H           4.7199    0.2257    0.0000 H       1  UNL1        0.0274
     20 H           4.5577    0.9365    0.0000 H       1  UNL1        0.0274
     21 H           3.7279   -2.2856    0.0000 H       1  UNL1        0.0304
     22 H           5.0820   -0.8779    0.0000 H       1  UNL1        0.0296
     23 H           5.5640   -0.2734    0.0000 H       1  UNL1        0.0296
     24 H           4.2132    2.0083    0.0000 H       1  UNL1        0.0326
     25 H           2.0551   -0.5216    0.0000 H       1  UNL1        0.0268
     26 H           1.9452   -1.3437    0.0000 H       1  UNL1        0.0268
     27 H           2.3551   -2.1040    0.0000 H       1  UNL1        0.0268
     28 H           3.1025   -2.4638    0.0000 H       1  UNL1        0.0268
     29 H           5.3713    1.2867    0.0000 H       1  UNL1        0.0596
     30 H           2.7285    1.8625    0.0000 H       1  UNL1        0.0235
     31 H           1.8537    1.9215    0.0000 H       1  UNL1        0.0235
     32 H           1.7947    1.0467    0.0000 H       1  UNL1        0.0235
     33 H           1.7563    0.8786    0.0000 H       1  UNL1        0.0235
     34 H           1.4299    0.0648    0.0000 H       1  UNL1        0.0235
     35 H           2.2437   -0.2616    0.0000 H       1  UNL1        0.0235
     36 H           4.1994   -2.8317    0.0000 H       1  UNL1        0.0233
     37 H           5.0760   -2.8136    0.0000 H       1  UNL1        0.0233
     38 H           5.0578   -1.9369    0.0000 H       1  UNL1        0.0233
     39 H           5.5355    2.1153    0.0000 H       1  UNL1        0.0233
     40 H           5.2459    2.9429    0.0000 H       1  UNL1        0.0233
     41 H           4.4183    2.6533    0.0000 H       1  UNL1        0.0233
     42 H           6.5631    0.4696    0.0000 H       1  UNL1        0.2098
@<TRIPOS>BOND
     1    12     1    1
     2     1    42    1
     3     2     3    1
     4     2     6    1
     5     2     7    1
     6     2     8    1
     7     3     4    1
     8     3    10    1
     9     3    17    1
    10     4     5    1
    11     4    13    1
    12     4    14    1
    13     5     6    1
    14     5     9    1
    15     5    18    1
    16     6    19    1
    17     6    20    1
    18     7    11    1
    19     7    15    1
    20     7    21    1
    21     8    12    1
    22     8    22    1
    23     8    23    1
    24     9    12    1
    25     9    16    1
    26     9    24    1
    27    10    11    1
    28    10    25    1
    29    10    26    1
    30    11    27    1
    31    11    28    1
    32    12    29    1
    33    13    30    1
    34    13    31    1
    35    13    32    1
    36    14    33    1
    37    14    34    1
    38    14    35    1
    39    15    36    1
    40    15    37    1
    41    15    38    1
    42    16    39    1
    43    16    40    1
    44    16    41    1
