@<TRIPOS>MOLECULE
IMPHY001206
 48 52 0 0 0
SMALL
GASTEIGER

@<TRIPOS>ATOM
      1 O           5.1842    0.5574    0.0000 O.3     1  UNL1       -0.4570
      2 O           2.7991   -2.4036    0.0000 O.3     1  UNL1       -0.3916
      3 O           2.7623    1.1140    0.0000 O.2     1  UNL1       -0.2502
      4 O           6.2610    1.7858    0.0000 O.3     1  UNL1       -0.4804
      5 O           4.5351    1.6403    0.0000 O.2     1  UNL1       -0.2507
      6 C           6.2523   -0.3308    0.0000 C.3     1  UNL1       -0.0053
      7 C           5.0383   -1.1765    0.0000 C.3     1  UNL1        0.1238
      8 C           5.9503   -1.1980    0.0000 C.3     1  UNL1        0.0061
      9 C           4.7753   -0.3025    0.0000 C.3     1  UNL1        0.0283
     10 C           5.5240    0.2184    0.0000 C.3     1  UNL1        0.0700
     11 C           3.8580   -0.0864    0.0000 C.3     1  UNL1        0.0745
     12 C           6.9483   -1.1632    0.0000 C.3     1  UNL1       -0.0394
     13 C           7.1191   -0.0262    0.0000 C.3     1  UNL1       -0.0249
     14 C           6.4406   -1.9746    0.0000 C.3     1  UNL1       -0.0455
     15 C           8.0012   -1.4258    0.0000 C.3     1  UNL1       -0.0196
     16 C           4.4005   -1.8910    0.0000 C.3     1  UNL1        0.0139
     17 C           7.3529   -2.0758    0.0000 C.3     1  UNL1       -0.0461
     18 C           3.2128   -0.7726    0.0000 C.3     1  UNL1       -0.0108
     19 C           3.4843   -1.6753    0.0000 C.3     1  UNL1        0.0599
     20 C           7.8968   -0.5132    0.0000 C.2     1  UNL1       -0.0730
     21 C           3.5931    0.5574    0.0000 C.2     1  UNL1        0.3141
     22 C           5.4400    1.2148    0.0000 C.2     1  UNL1        0.3088
     23 C           2.8745    0.0947    0.0000 C.3     1  UNL1       -0.0489
     24 C           8.7004    0.0819    0.0000 C.2     1  UNL1       -0.0992
     25 H           5.5312   -1.9375    0.0000 H       1  UNL1        0.0345
     26 H           4.3402    0.4278    0.0000 H       1  UNL1        0.0358
     27 H           6.0668    0.5180    0.0000 H       1  UNL1        0.0423
     28 H           6.9911   -1.7818    0.0000 H       1  UNL1        0.0277
     29 H           6.3732   -1.3948    0.0000 H       1  UNL1        0.0277
     30 H           6.7886    0.4983    0.0000 H       1  UNL1        0.0316
     31 H           7.5569    0.4128    0.0000 H       1  UNL1        0.0316
     32 H           6.5111   -2.5905    0.0000 H       1  UNL1        0.0270
     33 H           5.8558   -2.1805    0.0000 H       1  UNL1        0.0270
     34 H           8.8039   -1.7053    0.0000 H       1  UNL1        0.0346
     35 H           4.9248   -2.2219    0.0000 H       1  UNL1        0.0329
     36 H           4.1607   -2.4628    0.0000 H       1  UNL1        0.0329
     37 H           7.8783   -2.4049    0.0000 H       1  UNL1        0.0271
     38 H           7.1490   -2.6614    0.0000 H       1  UNL1        0.0271
     39 H           2.6592   -1.0516    0.0000 H       1  UNL1        0.0301
     40 H           2.8418   -0.2759    0.0000 H       1  UNL1        0.0301
     41 H           2.8808   -1.5331    0.0000 H       1  UNL1        0.0595
     42 H           2.7622   -0.5150    0.0000 H       1  UNL1        0.0240
     43 H           2.2648    0.2071    0.0000 H       1  UNL1        0.0240
     44 H           2.9869    0.7045    0.0000 H       1  UNL1        0.0240
     45 H           8.6299    0.6979    0.0000 H       1  UNL1        0.0534
     46 H           9.2690   -0.1651    0.0000 H       1  UNL1        0.0534
     47 H           2.1956   -2.2615    0.0000 H       1  UNL1        0.2098
     48 H           6.2089    2.4036    0.0000 H       1  UNL1        0.2951
@<TRIPOS>BOND
     1     7     1    1
     2     1    21    1
     3    19     2    1
     4     2    47    1
     5     3    21    2
     6     4    22    1
     7     4    48    1
     8     5    22    2
     9     6     8    1
    10     6    10    1
    11     6    12    1
    12     6    13    1
    13     7     8    1
    14     7     9    1
    15     7    16    1
    16     8    14    1
    17     8    25    1
    18     9    10    1
    19     9    11    1
    20     9    26    1
    21    10    22    1
    22    10    27    1
    23    11    18    1
    24    11    21    1
    25    11    23    1
    26    12    15    1
    27    12    28    1
    28    12    29    1
    29    13    20    1
    30    13    30    1
    31    13    31    1
    32    14    17    1
    33    14    32    1
    34    14    33    1
    35    15    17    1
    36    15    20    1
    37    15    34    1
    38    16    19    1
    39    16    35    1
    40    16    36    1
    41    17    37    1
    42    17    38    1
    43    18    19    1
    44    18    39    1
    45    18    40    1
    46    19    41    1
    47    20    24    2
    48    23    42    1
    49    23    43    1
    50    23    44    1
    51    24    45    1
    52    24    46    1
