@<TRIPOS>MOLECULE
IMPHY012504
 38 43 0 0 0
SMALL
GASTEIGER

@<TRIPOS>ATOM
      1 O           6.2352   -2.0184    0.0000 O.3     1  UNL1       -0.3646
      2 O           8.9116   -1.4799    0.0000 O.3     1  UNL1       -0.3891
      3 O           2.6079    0.2270    0.0000 O.3     1  UNL1       -0.4526
      4 O           2.6079    1.9034    0.0000 O.3     1  UNL1       -0.4526
      5 N           7.1256    1.5652    0.0000 N.3     1  UNL1       -0.2942
      6 C           6.2596    0.0652    0.0000 C.3     1  UNL1        0.0416
      7 C           6.2435   -0.9763    0.0000 C.3     1  UNL1        0.0988
      8 C           7.1256    0.5652    0.0000 C.3     1  UNL1        0.0253
      9 C           7.1415   -1.5040    0.0000 C.3     1  UNL1        0.1119
     10 C           6.1461    0.6688    0.0000 C.3     1  UNL1       -0.0266
     11 C           8.0356    0.0584    0.0000 C.3     1  UNL1       -0.0077
     12 C           8.0436   -0.9832    0.0000 C.3     1  UNL1        0.0852
     13 C           5.3935    0.5652    0.0000 C.ar    1  UNL1       -0.0290
     14 C           6.5462    1.3616    0.0000 C.3     1  UNL1        0.0005
     15 C           6.2596    2.0652    0.0000 C.3     1  UNL1        0.0247
     16 C           5.3935    1.5652    0.0000 C.ar    1  UNL1       -0.0258
     17 C           4.4996    0.0306    0.0000 C.ar    1  UNL1       -0.0120
     18 C           4.4996    2.0999    0.0000 C.ar    1  UNL1       -0.0115
     19 C           3.5935    0.5444    0.0000 C.ar    1  UNL1        0.1665
     20 C           3.5935    1.5860    0.0000 C.ar    1  UNL1        0.1665
     21 C           2.0000    1.0652    0.0000 C.3     1  UNL1        0.2332
     22 H           5.6235   -0.9690    0.0000 H       1  UNL1        0.0632
     23 H           7.8617    0.9902    0.0000 H       1  UNL1        0.0473
     24 H           7.4495   -2.0421    0.0000 H       1  UNL1        0.0648
     25 H           5.7190    1.1182    0.0000 H       1  UNL1        0.0287
     26 H           5.5942    0.3864    0.0000 H       1  UNL1        0.0287
     27 H           8.6472   -0.0430    0.0000 H       1  UNL1        0.0306
     28 H           8.2401    0.6437    0.0000 H       1  UNL1        0.0306
     29 H           8.0448   -1.6032    0.0000 H       1  UNL1        0.0620
     30 H           6.5147    1.9808    0.0000 H       1  UNL1        0.0427
     31 H           5.9434    1.5069    0.0000 H       1  UNL1        0.0427
     32 H           6.6581    2.5402    0.0000 H       1  UNL1        0.0476
     33 H           5.8610    2.5402    0.0000 H       1  UNL1        0.0476
     34 H           4.5068   -0.5894    0.0000 H       1  UNL1        0.0658
     35 H           8.9139   -2.0999    0.0000 H       1  UNL1        0.2099
     36 H           4.5068    2.7198    0.0000 H       1  UNL1        0.0658
     37 H           1.5391    1.4800    0.0000 H       1  UNL1        0.1166
     38 H           1.5391    0.6505    0.0000 H       1  UNL1        0.1166
@<TRIPOS>BOND
     1     7     1    1
     2     9     1    1
     3    12     2    1
     4     2    35    1
     5     3    19    1
     6     3    21    1
     7     4    20    1
     8     4    21    1
     9     5     8    1
    10     5    14    1
    11     5    15    1
    12     6     7    1
    13     6     8    1
    14     6    10    1
    15     6    13    1
    16     7     9    1
    17     7    22    1
    18     8    11    1
    19     8    23    1
    20     9    12    1
    21     9    24    1
    22    10    14    1
    23    10    25    1
    24    10    26    1
    25    11    12    1
    26    11    27    1
    27    11    28    1
    28    12    29    1
    29    13    16   ar
    30    13    17   ar
    31    14    30    1
    32    14    31    1
    33    15    16    1
    34    15    32    1
    35    15    33    1
    36    16    18   ar
    37    17    19   ar
    38    17    34    1
    39    18    20   ar
    40    18    36    1
    41    19    20   ar
    42    21    37    1
    43    21    38    1
