@<TRIPOS>MOLECULE
IMPHY003106
 22 22 0 0 0
SMALL
GASTEIGER

@<TRIPOS>ATOM
      1 O           3.7320    4.4400    0.0000 O.3     1  UNL1       -0.3825
      2 C           2.8660   -3.0600    0.0000 C.ar    1  UNL1        0.0259
      3 C           2.0000   -3.5600    0.0000 C.ar    1  UNL1       -0.0463
      4 C           3.7320   -3.5600    0.0000 C.ar    1  UNL1       -0.0463
      5 C           2.0000   -4.5600    0.0000 C.ar    1  UNL1       -0.0606
      6 C           3.7320   -4.5600    0.0000 C.ar    1  UNL1       -0.0606
      7 C           2.8660   -5.0600    0.0000 C.ar    1  UNL1       -0.0617
      8 C           2.8660   -2.0600    0.0000 C.1     1  UNL1       -0.0524
      9 C           2.8660   -1.0600    0.0000 C.1     1  UNL1       -0.0086
     10 C           2.8660    3.9400    0.0000 C.3     1  UNL1        0.1058
     11 C           2.8660   -0.0600    0.0000 C.1     1  UNL1       -0.0006
     12 C           2.8660    2.9400    0.0000 C.1     1  UNL1       -0.0604
     13 C           2.8660    0.9400    0.0000 C.1     1  UNL1       -0.0009
     14 C           2.8660    1.9400    0.0000 C.1     1  UNL1       -0.0116
     15 H           1.4631   -3.2500    0.0000 H       1  UNL1        0.0630
     16 H           4.2690   -3.2500    0.0000 H       1  UNL1        0.0630
     17 H           1.4631   -4.8700    0.0000 H       1  UNL1        0.0618
     18 H           4.2690   -4.8700    0.0000 H       1  UNL1        0.0618
     19 H           2.8660   -5.6800    0.0000 H       1  UNL1        0.0618
     20 H           2.6540    4.5226    0.0000 H       1  UNL1        0.0695
     21 H           2.2554    3.8323    0.0000 H       1  UNL1        0.0695
     22 H           3.7320    5.0600    0.0000 H       1  UNL1        0.2107
@<TRIPOS>BOND
     1     1    10    1
     2     1    22    1
     3     2     3   ar
     4     2     4   ar
     5     2     8    1
     6     3     5   ar
     7     3    15    1
     8     4     6   ar
     9     4    16    1
    10     5     7   ar
    11     5    17    1
    12     6     7   ar
    13     6    18    1
    14     7    19    1
    15     8     9    3
    16     9    11    1
    17    10    12    1
    18    10    20    1
    19    10    21    1
    20    11    13    3
    21    12    14    3
    22    13    14    1
