@<TRIPOS>MOLECULE
IMPHY016726
 9 9 0 0 0
SMALL
GASTEIGER

@<TRIPOS>ATOM
      1 O           3.7601   -0.7694    0.0000 O.3     1  UNL1       -0.3869
      2 O           5.5202   -0.4907    0.0000 O.2     1  UNL1       -0.2451
      3 O           2.0000   -0.4907    0.0000 O.2     1  UNL1       -0.2451
      4 C           4.2601    0.7694    0.0000 C.2     1  UNL1        0.0297
      5 C           3.2601    0.7694    0.0000 C.2     1  UNL1        0.0297
      6 C           4.5691   -0.1816    0.0000 C.2     1  UNL1        0.3397
      7 C           2.9511   -0.1816    0.0000 C.2     1  UNL1        0.3397
      8 H           4.6245    1.2710    0.0000 H       1  UNL1        0.0691
      9 H           2.8956    1.2710    0.0000 H       1  UNL1        0.0691
@<TRIPOS>BOND
     1     1     6    1
     2     1     7    1
     3     2     6    2
     4     3     7    2
     5     4     5    2
     6     4     6    1
     7     4     8    1
     8     5     7    1
     9     5     9    1
