@<TRIPOS>MOLECULE
IMPHY014323
 32 32 0 0 0
SMALL
GASTEIGER

@<TRIPOS>ATOM
      1 O           6.0010   -0.9050    0.0000 O.3     1  UNL1       -0.4920
      2 O           2.5369    1.0950    0.0000 O.3     1  UNL1       -0.5065
      3 O           5.1350    3.5950    0.0000 O.3     1  UNL1       -0.4804
      4 O           6.0010    2.0950    0.0000 O.2     1  UNL1       -0.2506
      5 C           6.8671   -2.4050    0.0000 C.3     1  UNL1       -0.0189
      6 C           6.0010   -1.9050    0.0000 C.3     1  UNL1        0.0896
      7 C           6.8671   -3.4050    0.0000 C.3     1  UNL1       -0.0528
      8 C           4.2690    1.0950    0.0000 C.ar    1  UNL1        0.0081
      9 C           5.1350   -0.4050    0.0000 C.ar    1  UNL1        0.1210
     10 C           5.1350    0.5950    0.0000 C.ar    1  UNL1       -0.0128
     11 C           7.7331   -3.9050    0.0000 C.3     1  UNL1       -0.0652
     12 C           4.2690    2.0950    0.0000 C.3     1  UNL1        0.0734
     13 C           3.4030    0.5950    0.0000 C.ar    1  UNL1        0.1208
     14 C           4.2690   -0.9050    0.0000 C.ar    1  UNL1       -0.0165
     15 C           3.4030   -0.4050    0.0000 C.ar    1  UNL1       -0.0164
     16 C           5.1350    2.5950    0.0000 C.2     1  UNL1        0.3092
     17 H           7.4776   -2.5127    0.0000 H       1  UNL1        0.0298
     18 H           7.0791   -1.8224    0.0000 H       1  UNL1        0.0298
     19 H           5.3905   -1.7973    0.0000 H       1  UNL1        0.0696
     20 H           5.7890   -2.4876    0.0000 H       1  UNL1        0.0696
     21 H           6.2565   -3.2973    0.0000 H       1  UNL1        0.0264
     22 H           6.6550   -3.9876    0.0000 H       1  UNL1        0.0264
     23 H           5.6720    0.9050    0.0000 H       1  UNL1        0.0658
     24 H           7.4231   -4.4419    0.0000 H       1  UNL1        0.0230
     25 H           8.2700   -4.2150    0.0000 H       1  UNL1        0.0230
     26 H           8.0431   -3.3681    0.0000 H       1  UNL1        0.0230
     27 H           4.0569    2.6776    0.0000 H       1  UNL1        0.0427
     28 H           3.6584    1.9873    0.0000 H       1  UNL1        0.0427
     29 H           4.2690   -1.5250    0.0000 H       1  UNL1        0.0655
     30 H           2.8660   -0.7150    0.0000 H       1  UNL1        0.0655
     31 H           2.0000    0.7850    0.0000 H       1  UNL1        0.2921
     32 H           5.6720    3.9050    0.0000 H       1  UNL1        0.2951
@<TRIPOS>BOND
     1     1     6    1
     2     1     9    1
     3     2    13    1
     4     2    31    1
     5     3    16    1
     6     3    32    1
     7     4    16    2
     8     5     6    1
     9     5     7    1
    10     5    17    1
    11     5    18    1
    12     6    19    1
    13     6    20    1
    14     7    11    1
    15     7    21    1
    16     7    22    1
    17     8    10   ar
    18     8    12    1
    19     8    13   ar
    20     9    10   ar
    21     9    14   ar
    22    10    23    1
    23    11    24    1
    24    11    25    1
    25    11    26    1
    26    12    16    1
    27    12    27    1
    28    12    28    1
    29    13    15   ar
    30    14    15   ar
    31    14    29    1
    32    15    30    1
