@<TRIPOS>MOLECULE
IMPHY015278
 32 31 0 0 0
SMALL
GASTEIGER

@<TRIPOS>ATOM
      1 O           6.3301    0.2500    0.0000 O.3     1  UNL1       -0.4644
      2 O           5.4641   -1.2500    0.0000 O.2     1  UNL1       -0.2509
      3 C           8.0622    0.2500    0.0000 C.3     1  UNL1       -0.0098
      4 C           8.9282   -0.2500    0.0000 C.3     1  UNL1       -0.0502
      5 C           7.1962   -0.2500    0.0000 C.3     1  UNL1        0.0950
      6 C           8.0622    1.2500    0.0000 C.3     1  UNL1       -0.0593
      7 C           3.7320   -0.2500    0.0000 C.3     1  UNL1       -0.0432
      8 C           4.5981    0.2500    0.0000 C.3     1  UNL1        0.0449
      9 C           9.7942    0.2500    0.0000 C.3     1  UNL1       -0.0649
     10 C           2.8660    0.2500    0.0000 C.3     1  UNL1       -0.0554
     11 C           5.4641   -0.2500    0.0000 C.2     1  UNL1        0.3071
     12 C           2.0000   -0.2500    0.0000 C.3     1  UNL1       -0.0653
     13 H           7.5252    0.5600    0.0000 H       1  UNL1        0.0331
     14 H           8.5297   -0.7249    0.0000 H       1  UNL1        0.0266
     15 H           9.3267   -0.7249    0.0000 H       1  UNL1        0.0266
     16 H           6.7976   -0.7249    0.0000 H       1  UNL1        0.0700
     17 H           7.5947   -0.7249    0.0000 H       1  UNL1        0.0700
     18 H           8.6822    1.2500    0.0000 H       1  UNL1        0.0233
     19 H           8.0622    1.8700    0.0000 H       1  UNL1        0.0233
     20 H           7.4422    1.2500    0.0000 H       1  UNL1        0.0233
     21 H           3.3335   -0.7249    0.0000 H       1  UNL1        0.0270
     22 H           4.1306   -0.7249    0.0000 H       1  UNL1        0.0270
     23 H           4.9966    0.7249    0.0000 H       1  UNL1        0.0377
     24 H           4.1996    0.7249    0.0000 H       1  UNL1        0.0377
     25 H          10.1042   -0.2869    0.0000 H       1  UNL1        0.0230
     26 H          10.3312    0.5600    0.0000 H       1  UNL1        0.0230
     27 H           9.4842    0.7869    0.0000 H       1  UNL1        0.0230
     28 H           3.2646    0.7249    0.0000 H       1  UNL1        0.0263
     29 H           2.4675    0.7249    0.0000 H       1  UNL1        0.0263
     30 H           1.6900    0.2869    0.0000 H       1  UNL1        0.0230
     31 H           1.4631   -0.5600    0.0000 H       1  UNL1        0.0230
     32 H           2.3100   -0.7869    0.0000 H       1  UNL1        0.0230
@<TRIPOS>BOND
     1     1     5    1
     2     1    11    1
     3     2    11    2
     4     3     4    1
     5     3     5    1
     6     3     6    1
     7     3    13    1
     8     4     9    1
     9     4    14    1
    10     4    15    1
    11     5    16    1
    12     5    17    1
    13     6    18    1
    14     6    19    1
    15     6    20    1
    16     7     8    1
    17     7    10    1
    18     7    21    1
    19     7    22    1
    20     8    11    1
    21     8    23    1
    22     8    24    1
    23     9    25    1
    24     9    26    1
    25     9    27    1
    26    10    12    1
    27    10    28    1
    28    10    29    1
    29    12    30    1
    30    12    31    1
    31    12    32    1
