@<TRIPOS>MOLECULE
IMPHY017027
 27 26 0 0 0
SMALL
GASTEIGER

@<TRIPOS>ATOM
      1 O           8.9282    0.7500    0.0000 O.3     1  UNL1       -0.3921
      2 O           3.7320    0.7500    0.0000 O.3     1  UNL1       -0.4649
      3 O           4.5981   -0.7500    0.0000 O.2     1  UNL1       -0.2509
      4 C           7.1962    0.7500    0.0000 C.3     1  UNL1       -0.0266
      5 C           6.3301    0.2500    0.0000 C.3     1  UNL1       -0.0407
      6 C           8.0622    0.2500    0.0000 C.3     1  UNL1        0.0525
      7 C           5.4641    0.7500    0.0000 C.3     1  UNL1        0.0450
      8 C           8.0622   -0.7500    0.0000 C.3     1  UNL1       -0.0389
      9 C           4.5981    0.2500    0.0000 C.2     1  UNL1        0.3071
     10 C           2.8660    0.2500    0.0000 C.3     1  UNL1        0.0896
     11 C           2.0000    0.7500    0.0000 C.3     1  UNL1       -0.0306
     12 H           7.5947    1.2250    0.0000 H       1  UNL1        0.0290
     13 H           6.7976    1.2250    0.0000 H       1  UNL1        0.0290
     14 H           5.9316   -0.2249    0.0000 H       1  UNL1        0.0271
     15 H           6.7287   -0.2249    0.0000 H       1  UNL1        0.0271
     16 H           8.0622    0.8700    0.0000 H       1  UNL1        0.0590
     17 H           5.8626    1.2250    0.0000 H       1  UNL1        0.0377
     18 H           5.0656    1.2250    0.0000 H       1  UNL1        0.0377
     19 H           7.4422   -0.7500    0.0000 H       1  UNL1        0.0254
     20 H           8.0622   -1.3700    0.0000 H       1  UNL1        0.0254
     21 H           8.6822   -0.7500    0.0000 H       1  UNL1        0.0254
     22 H           9.4651    0.4400    0.0000 H       1  UNL1        0.2098
     23 H           2.4675   -0.2249    0.0000 H       1  UNL1        0.0694
     24 H           3.2646   -0.2249    0.0000 H       1  UNL1        0.0694
     25 H           2.3100    1.2869    0.0000 H       1  UNL1        0.0262
     26 H           1.4631    1.0600    0.0000 H       1  UNL1        0.0262
     27 H           1.6900    0.2131    0.0000 H       1  UNL1        0.0262
@<TRIPOS>BOND
     1     1     6    1
     2     1    22    1
     3     2     9    1
     4     2    10    1
     5     3     9    2
     6     4     5    1
     7     4     6    1
     8     4    12    1
     9     4    13    1
    10     5     7    1
    11     5    14    1
    12     5    15    1
    13     6     8    1
    14     6    16    1
    15     7     9    1
    16     7    17    1
    17     7    18    1
    18     8    19    1
    19     8    20    1
    20     8    21    1
    21    10    11    1
    22    10    23    1
    23    10    24    1
    24    11    25    1
    25    11    26    1
    26    11    27    1
