@<TRIPOS>MOLECULE
IMPHY004939
 30 32 0 0 0
SMALL
GASTEIGER

@<TRIPOS>ATOM
      1 O           6.0682   -0.0950    0.0000 O.2     1  UNL1       -0.4545
      2 O           6.0682    2.9050    0.0000 O.2     1  UNL1       -0.2870
      3 O           2.5381   -0.1192    0.0000 O.3     1  UNL1       -0.5066
      4 O           8.6663   -2.5950    0.0000 O.3     1  UNL1       -0.5033
      5 O          10.3984   -1.5950    0.0000 O.3     1  UNL1       -0.5033
      6 C           5.2022    1.4050    0.0000 C.ar    1  UNL1        0.0642
      7 C           6.9343    0.4050    0.0000 C.ar    1  UNL1        0.1393
      8 C           5.2022    0.4050    0.0000 C.ar    1  UNL1        0.1427
      9 C           7.8003   -0.0950    0.0000 C.ar    1  UNL1        0.0211
     10 C           6.0682    1.9050    0.0000 C.ar    1  UNL1        0.1931
     11 C           6.9343    1.4050    0.0000 C.ar    1  UNL1        0.0287
     12 C           4.3083    1.9397    0.0000 C.ar    1  UNL1       -0.0439
     13 C           4.3083   -0.1297    0.0000 C.ar    1  UNL1        0.0229
     14 C           7.8003   -1.0950    0.0000 C.ar    1  UNL1       -0.0059
     15 C           8.6663    0.4050    0.0000 C.ar    1  UNL1       -0.0474
     16 C           3.4022    0.3842    0.0000 C.ar    1  UNL1        0.1204
     17 C           3.4022    1.4258    0.0000 C.ar    1  UNL1       -0.0193
     18 C           8.6663   -1.5950    0.0000 C.ar    1  UNL1        0.1589
     19 C           9.5323   -0.0950    0.0000 C.ar    1  UNL1       -0.0159
     20 C           9.5323   -1.0950    0.0000 C.ar    1  UNL1        0.1583
     21 H           7.4712    1.7150    0.0000 H       1  UNL1        0.0693
     22 H           4.3154    2.5596    0.0000 H       1  UNL1        0.0627
     23 H           4.3154   -0.7496    0.0000 H       1  UNL1        0.0691
     24 H           7.2634   -1.4050    0.0000 H       1  UNL1        0.0662
     25 H           8.6663    1.0250    0.0000 H       1  UNL1        0.0626
     26 H           2.8665    1.7379    0.0000 H       1  UNL1        0.0654
     27 H          10.0693    0.2150    0.0000 H       1  UNL1        0.0655
     28 H           2.0000    0.1888    0.0000 H       1  UNL1        0.2921
     29 H           8.1294   -2.9050    0.0000 H       1  UNL1        0.2923
     30 H          10.9353   -1.2850    0.0000 H       1  UNL1        0.2923
@<TRIPOS>BOND
     1     1     7   ar
     2     1     8   ar
     3     2    10    2
     4     3    16    1
     5     3    28    1
     6     4    18    1
     7     4    29    1
     8     5    20    1
     9     5    30    1
    10     6     8   ar
    11     6    10   ar
    12     6    12   ar
    13     7     9    1
    14     7    11   ar
    15     8    13   ar
    16     9    14   ar
    17     9    15   ar
    18    10    11   ar
    19    11    21    1
    20    12    17   ar
    21    12    22    1
    22    13    16   ar
    23    13    23    1
    24    14    18   ar
    25    14    24    1
    26    15    19   ar
    27    15    25    1
    28    16    17   ar
    29    17    26    1
    30    18    20   ar
    31    19    20   ar
    32    19    27    1
