@<TRIPOS>MOLECULE
IMPHY000059
 30 33 0 0 0
SMALL
GASTEIGER

@<TRIPOS>ATOM
      1 O           4.3798   -0.2431    0.0000 O.2     1  UNL1       -0.4539
      2 O           2.5836   -3.0894    0.0000 O.2     1  UNL1       -0.4628
      3 O           7.0321   -1.7878    0.0000 O.2     1  UNL1       -0.2870
      4 C           4.3958   -1.2846    0.0000 C.ar    1  UNL1        0.1500
      5 C           3.5298   -1.7846    0.0000 C.ar    1  UNL1        0.0630
      6 C           5.2619   -1.7846    0.0000 C.ar    1  UNL1        0.0648
      7 C           3.5298   -2.7846    0.0000 C.ar    1  UNL1        0.1383
      8 C           5.2778    0.2846    0.0000 C.ar    1  UNL1        0.1392
      9 C           5.2619   -2.7846    0.0000 C.ar    1  UNL1       -0.0439
     10 C           6.1719   -1.2778    0.0000 C.ar    1  UNL1        0.1931
     11 C           4.3958   -3.2846    0.0000 C.ar    1  UNL1       -0.0179
     12 C           6.1799   -0.2362    0.0000 C.ar    1  UNL1        0.0287
     13 C           2.5836   -1.4799    0.0000 C.ar    1  UNL1       -0.0126
     14 C           5.2740    1.2846    0.0000 C.ar    1  UNL1        0.0174
     15 C           2.0000   -2.2846    0.0000 C.ar    1  UNL1        0.0932
     16 C           6.1381    1.7880    0.0000 C.ar    1  UNL1       -0.0511
     17 C           4.4060    1.7813    0.0000 C.ar    1  UNL1       -0.0511
     18 C           6.1342    2.7880    0.0000 C.ar    1  UNL1       -0.0611
     19 C           4.4022    2.7813    0.0000 C.ar    1  UNL1       -0.0611
     20 C           5.2663    3.2846    0.0000 C.ar    1  UNL1       -0.0617
     21 H           5.7988   -3.0946    0.0000 H       1  UNL1        0.0627
     22 H           4.3958   -3.9046    0.0000 H       1  UNL1        0.0655
     23 H           6.7180    0.0718    0.0000 H       1  UNL1        0.0693
     24 H           2.3910   -0.8906    0.0000 H       1  UNL1        0.0656
     25 H           1.3800   -2.2846    0.0000 H       1  UNL1        0.1030
     26 H           6.6762    1.4800    0.0000 H       1  UNL1        0.0625
     27 H           3.8703    1.4692    0.0000 H       1  UNL1        0.0625
     28 H           6.6700    3.1000    0.0000 H       1  UNL1        0.0618
     29 H           3.8640    3.0892    0.0000 H       1  UNL1        0.0618
     30 H           5.2639    3.9046    0.0000 H       1  UNL1        0.0618
@<TRIPOS>BOND
     1     1     4   ar
     2     1     8   ar
     3     2     7   ar
     4     2    15   ar
     5     3    10    2
     6     4     5   ar
     7     4     6   ar
     8     5     7   ar
     9     5    13   ar
    10     6     9   ar
    11     6    10   ar
    12     7    11   ar
    13     8    12   ar
    14     8    14    1
    15     9    11   ar
    16     9    21    1
    17    10    12   ar
    18    11    22    1
    19    12    23    1
    20    13    15   ar
    21    13    24    1
    22    14    16   ar
    23    14    17   ar
    24    15    25    1
    25    16    18   ar
    26    16    26    1
    27    17    19   ar
    28    17    27    1
    29    18    20   ar
    30    18    28    1
    31    19    20   ar
    32    19    29    1
    33    20    30    1
