@<TRIPOS>MOLECULE
IMPHY007127
 24 26 0 0 0
SMALL
GASTEIGER

@<TRIPOS>ATOM
      1 O           4.6660    1.5173    0.0000 O.2     1  UNL1       -0.2669
      2 N           5.5321    0.0173    0.0000 N.ar    1  UNL1       -0.2962
      3 N           4.6660   -1.4827    0.0000 N.ar    1  UNL1       -0.2335
      4 C           7.0619   -0.4827    0.0000 C.3     1  UNL1       -0.0280
      5 C           6.4783    0.3221    0.0000 C.3     1  UNL1        0.0282
      6 C           6.4783   -1.2874    0.0000 C.3     1  UNL1        0.0073
      7 C           5.5321   -0.9827    0.0000 C.ar    1  UNL1        0.1130
      8 C           4.6660    0.5173    0.0000 C.ar    1  UNL1        0.2618
      9 C           3.8000    0.0173    0.0000 C.ar    1  UNL1        0.0649
     10 C           3.8000   -0.9827    0.0000 C.ar    1  UNL1        0.0782
     11 C           2.9061    0.5520    0.0000 C.ar    1  UNL1       -0.0474
     12 C           2.9061   -1.5173    0.0000 C.ar    1  UNL1       -0.0355
     13 C           2.0000    0.0381    0.0000 C.ar    1  UNL1       -0.0609
     14 C           2.0000   -1.0035    0.0000 C.ar    1  UNL1       -0.0597
     15 H           7.5228   -0.8974    0.0000 H       1  UNL1        0.0286
     16 H           7.5228   -0.0679    0.0000 H       1  UNL1        0.0286
     17 H           7.0157    0.6313    0.0000 H       1  UNL1        0.0493
     18 H           6.2272    0.8890    0.0000 H       1  UNL1        0.0493
     19 H           6.2272   -1.8543    0.0000 H       1  UNL1        0.0344
     20 H           7.0157   -1.5966    0.0000 H       1  UNL1        0.0344
     21 H           2.9132    1.1720    0.0000 H       1  UNL1        0.0626
     22 H           2.9132   -2.1373    0.0000 H       1  UNL1        0.0639
     23 H           1.4643    0.3502    0.0000 H       1  UNL1        0.0618
     24 H           1.4643   -1.3156    0.0000 H       1  UNL1        0.0618
@<TRIPOS>BOND
     1     1     8    2
     2     2     5    1
     3     2     7   ar
     4     2     8   ar
     5     3     7   ar
     6     3    10   ar
     7     4     5    1
     8     4     6    1
     9     4    15    1
    10     4    16    1
    11     5    17    1
    12     5    18    1
    13     6     7    1
    14     6    19    1
    15     6    20    1
    16     8     9   ar
    17     9    10   ar
    18     9    11   ar
    19    10    12   ar
    20    11    13   ar
    21    11    21    1
    22    12    14   ar
    23    12    22    1
    24    13    14   ar
    25    13    23    1
    26    14    24    1
