@<TRIPOS>MOLECULE
IMPHY011248
 56 59 0 0 0
SMALL
GASTEIGER

@<TRIPOS>ATOM
      1 O           7.3915   -0.5086    0.0000 O.3     1  UNL1       -0.3374
      2 O           6.6140   -2.0989    0.0000 O.3     1  UNL1       -0.3632
      3 O           4.7838   -2.2651    0.0000 O.3     1  UNL1       -0.4910
      4 O          10.6793   -0.1412    0.0000 O.3     1  UNL1       -0.4914
      5 O           2.8993   -1.3575    0.0000 O.3     1  UNL1       -0.4914
      6 O          11.1351    1.8558    0.0000 O.3     1  UNL1       -0.4914
      7 N           6.1742    1.9376    0.0000 N.3     1  UNL1       -0.2956
      8 C           6.3967    0.9627    0.0000 C.3     1  UNL1        0.0665
      9 C           7.2977    0.5288    0.0000 C.3     1  UNL1        0.1069
     10 C           5.5271    0.3892    0.0000 C.ar    1  UNL1       -0.0158
     11 C           8.1986    0.9627    0.0000 C.ar    1  UNL1       -0.0101
     12 C           6.7977    2.7194    0.0000 C.3     1  UNL1        0.0033
     13 C           7.7977    2.7194    0.0000 C.3     1  UNL1       -0.0144
     14 C           5.5970   -0.6501    0.0000 C.ar    1  UNL1        0.0577
     15 C           8.4212    1.9376    0.0000 C.ar    1  UNL1       -0.0368
     16 C           6.5354   -1.1020    0.0000 C.3     1  UNL1        0.1873
     17 C           5.1993    2.1601    0.0000 C.3     1  UNL1       -0.0121
     18 C           4.5607    0.8825    0.0000 C.ar    1  UNL1       -0.0529
     19 C           8.9512    0.2425    0.0000 C.ar    1  UNL1       -0.0103
     20 C           4.7052   -1.2682    0.0000 C.ar    1  UNL1        0.1697
     21 C           9.4117    2.2599    0.0000 C.ar    1  UNL1       -0.0127
     22 C           9.9489    0.5418    0.0000 C.ar    1  UNL1        0.1618
     23 C           3.6550    0.2852    0.0000 C.ar    1  UNL1       -0.0160
     24 C           3.7277   -0.7974    0.0000 C.ar    1  UNL1        0.1619
     25 C          10.1807    1.5573    0.0000 C.ar    1  UNL1        0.1618
     26 C           3.9598   -2.8316    0.0000 C.3     1  UNL1        0.0790
     27 C          11.6360    0.1499    0.0000 C.3     1  UNL1        0.0790
     28 C           2.0000   -0.9202    0.0000 C.3     1  UNL1        0.0790
     29 C          11.3539    2.8316    0.0000 C.3     1  UNL1        0.0790
     30 H           7.0613    1.4926    0.0000 H       1  UNL1        0.0541
     31 H           8.0371    0.1095    0.0000 H       1  UNL1        0.0667
     32 H           6.9356    3.3239    0.0000 H       1  UNL1        0.0430
     33 H           6.2391    2.9884    0.0000 H       1  UNL1        0.0430
     34 H           8.3563    2.9884    0.0000 H       1  UNL1        0.0326
     35 H           7.6597    3.3239    0.0000 H       1  UNL1        0.0326
     36 H           6.0239   -1.4522    0.0000 H       1  UNL1        0.0964
     37 H           5.3372    2.7646    0.0000 H       1  UNL1        0.0391
     38 H           4.5948    2.2981    0.0000 H       1  UNL1        0.0391
     39 H           5.0613    1.5557    0.0000 H       1  UNL1        0.0391
     40 H           4.5263    1.5015    0.0000 H       1  UNL1        0.0622
     41 H           8.8063   -0.3603    0.0000 H       1  UNL1        0.0659
     42 H           9.5426    2.8659    0.0000 H       1  UNL1        0.0658
     43 H           3.0995    0.5606    0.0000 H       1  UNL1        0.0655
     44 H           7.1736   -2.3658    0.0000 H       1  UNL1        0.2128
     45 H           3.6085   -2.3206    0.0000 H       1  UNL1        0.0660
     46 H           3.4488   -3.1828    0.0000 H       1  UNL1        0.0660
     47 H           4.3110   -3.3425    0.0000 H       1  UNL1        0.0660
     48 H          11.8165   -0.4432    0.0000 H       1  UNL1        0.0660
     49 H          12.2292    0.3304    0.0000 H       1  UNL1        0.0660
     50 H          11.4556    0.7431    0.0000 H       1  UNL1        0.0660
     51 H           2.2712   -0.3626    0.0000 H       1  UNL1        0.0660
     52 H           1.4424   -0.6490    0.0000 H       1  UNL1        0.0660
     53 H           1.7288   -1.4777    0.0000 H       1  UNL1        0.0660
     54 H          11.9589    2.6959    0.0000 H       1  UNL1        0.0660
     55 H          11.4895    3.4365    0.0000 H       1  UNL1        0.0660
     56 H          10.7489    2.9672    0.0000 H       1  UNL1        0.0660
@<TRIPOS>BOND
     1     1     9    1
     2     1    16    1
     3    16     2    1
     4     2    44    1
     5     3    20    1
     6     3    26    1
     7     4    22    1
     8     4    27    1
     9     5    24    1
    10     5    28    1
    11     6    25    1
    12     6    29    1
    13     7     8    1
    14     7    12    1
    15     7    17    1
    16     8     9    1
    17     8    10    1
    18     8    30    1
    19     9    11    1
    20     9    31    1
    21    10    14   ar
    22    10    18   ar
    23    11    15   ar
    24    11    19   ar
    25    12    13    1
    26    12    32    1
    27    12    33    1
    28    13    15    1
    29    13    34    1
    30    13    35    1
    31    14    16    1
    32    14    20   ar
    33    15    21   ar
    34    16    36    1
    35    17    37    1
    36    17    38    1
    37    17    39    1
    38    18    23   ar
    39    18    40    1
    40    19    22   ar
    41    19    41    1
    42    20    24   ar
    43    21    25   ar
    44    21    42    1
    45    22    25   ar
    46    23    24   ar
    47    23    43    1
    48    26    45    1
    49    26    46    1
    50    26    47    1
    51    27    48    1
    52    27    49    1
    53    27    50    1
    54    28    51    1
    55    28    52    1
    56    28    53    1
    57    29    54    1
    58    29    55    1
    59    29    56    1
