@<TRIPOS>MOLECULE
IMPHY004633
 92 93 0 0 0
SMALL
GASTEIGER

@<TRIPOS>ATOM
      1 O          11.5263  -10.2500    0.0000 O.2     1  UNL1       -0.2926
      2 O           3.7320   10.2500    0.0000 O.2     1  UNL1       -0.2926
      3 C          10.6603   -7.7500    0.0000 C.3     1  UNL1       -0.0026
      4 C           4.5981    7.7500    0.0000 C.3     1  UNL1       -0.0026
      5 C          10.6603   -8.7500    0.0000 C.3     1  UNL1        0.0190
      6 C           4.5981    8.7500    0.0000 C.3     1  UNL1        0.0190
      7 C          11.5263   -7.2500    0.0000 C.2     1  UNL1       -0.0383
      8 C           3.7320    7.2500    0.0000 C.2     1  UNL1       -0.0383
      9 C           9.6602   -7.7500    0.0000 C.3     1  UNL1       -0.0554
     10 C          10.1603   -6.8840    0.0000 C.3     1  UNL1       -0.0554
     11 C           5.5981    7.7500    0.0000 C.3     1  UNL1       -0.0554
     12 C           5.0981    6.8840    0.0000 C.3     1  UNL1       -0.0554
     13 C          12.3923   -7.7500    0.0000 C.2     1  UNL1       -0.0435
     14 C           2.8660    7.7500    0.0000 C.2     1  UNL1       -0.0435
     15 C          11.5263   -9.2500    0.0000 C.2     1  UNL1        0.1572
     16 C           3.7320    9.2500    0.0000 C.2     1  UNL1        0.1572
     17 C          12.3923   -8.7500    0.0000 C.2     1  UNL1       -0.0160
     18 C           2.8660    8.7500    0.0000 C.2     1  UNL1       -0.0160
     19 C          11.5263   -6.2500    0.0000 C.2     1  UNL1       -0.0575
     20 C           3.7320    6.2500    0.0000 C.2     1  UNL1       -0.0575
     21 C          13.2583   -7.2500    0.0000 C.3     1  UNL1       -0.0393
     22 C           2.0000    7.2500    0.0000 C.3     1  UNL1       -0.0393
     23 C          10.6603   -5.7500    0.0000 C.2     1  UNL1       -0.0586
     24 C           4.5981    5.7500    0.0000 C.2     1  UNL1       -0.0586
     25 C          10.6603   -4.7500    0.0000 C.2     1  UNL1       -0.0504
     26 C           4.5981    4.7500    0.0000 C.2     1  UNL1       -0.0504
     27 C          11.5263   -4.2500    0.0000 C.3     1  UNL1       -0.0397
     28 C           3.7320    4.2500    0.0000 C.3     1  UNL1       -0.0397
     29 C           9.7942   -4.2500    0.0000 C.2     1  UNL1       -0.0588
     30 C           5.4641    4.2500    0.0000 C.2     1  UNL1       -0.0588
     31 C           9.7942   -3.2500    0.0000 C.2     1  UNL1       -0.0613
     32 C           5.4641    3.2500    0.0000 C.2     1  UNL1       -0.0613
     33 C           8.9282   -2.7500    0.0000 C.2     1  UNL1       -0.0588
     34 C           6.3301    2.7500    0.0000 C.2     1  UNL1       -0.0588
     35 C           8.9282   -1.7500    0.0000 C.2     1  UNL1       -0.0504
     36 C           6.3301    1.7500    0.0000 C.2     1  UNL1       -0.0504
     37 C           8.0622   -1.2500    0.0000 C.2     1  UNL1       -0.0588
     38 C           7.1962    1.2500    0.0000 C.2     1  UNL1       -0.0588
     39 C           9.7942   -1.2500    0.0000 C.3     1  UNL1       -0.0397
     40 C           5.4641    1.2500    0.0000 C.3     1  UNL1       -0.0397
     41 C           8.0622   -0.2500    0.0000 C.2     1  UNL1       -0.0615
     42 C           7.1962    0.2500    0.0000 C.2     1  UNL1       -0.0615
     43 H          10.0497   -8.6423    0.0000 H       1  UNL1        0.0353
     44 H          10.4482   -9.3326    0.0000 H       1  UNL1        0.0353
     45 H           5.2087    8.6423    0.0000 H       1  UNL1        0.0353
     46 H           4.8101    9.3326    0.0000 H       1  UNL1        0.0353
     47 H           9.6602   -7.1300    0.0000 H       1  UNL1        0.0238
     48 H           9.0402   -7.7500    0.0000 H       1  UNL1        0.0238
     49 H           9.6602   -8.3700    0.0000 H       1  UNL1        0.0238
     50 H          10.6972   -6.5740    0.0000 H       1  UNL1        0.0238
     51 H           9.8503   -6.3470    0.0000 H       1  UNL1        0.0238
     52 H           9.6233   -7.1940    0.0000 H       1  UNL1        0.0238
     53 H           5.5981    7.1300    0.0000 H       1  UNL1        0.0238
     54 H           6.2181    7.7500    0.0000 H       1  UNL1        0.0238
     55 H           5.5981    8.3700    0.0000 H       1  UNL1        0.0238
     56 H           4.5611    6.5740    0.0000 H       1  UNL1        0.0238
     57 H           5.4081    6.3470    0.0000 H       1  UNL1        0.0238
     58 H           5.6350    7.1940    0.0000 H       1  UNL1        0.0238
     59 H           2.3291    9.0600    0.0000 H       1  UNL1        0.0655
     60 H          12.9292   -9.0600    0.0000 H       1  UNL1        0.0655
     61 H          12.0632   -5.9400    0.0000 H       1  UNL1        0.0621
     62 H           3.1951    5.9400    0.0000 H       1  UNL1        0.0621
     63 H          13.5683   -7.7869    0.0000 H       1  UNL1        0.0278
     64 H          13.7953   -6.9400    0.0000 H       1  UNL1        0.0278
     65 H          12.9483   -6.7131    0.0000 H       1  UNL1        0.0278
     66 H           1.6900    7.7869    0.0000 H       1  UNL1        0.0278
     67 H           1.4631    6.9400    0.0000 H       1  UNL1        0.0278
     68 H           2.3100    6.7131    0.0000 H       1  UNL1        0.0278
     69 H          10.1233   -6.0600    0.0000 H       1  UNL1        0.0620
     70 H           5.1350    6.0600    0.0000 H       1  UNL1        0.0620
     71 H          11.8363   -4.7869    0.0000 H       1  UNL1        0.0278
     72 H          12.0632   -3.9400    0.0000 H       1  UNL1        0.0278
     73 H          11.2163   -3.7131    0.0000 H       1  UNL1        0.0278
     74 H           3.4220    4.7869    0.0000 H       1  UNL1        0.0278
     75 H           3.1951    3.9400    0.0000 H       1  UNL1        0.0278
     76 H           4.0420    3.7131    0.0000 H       1  UNL1        0.0278
     77 H           6.0010    4.5600    0.0000 H       1  UNL1        0.0620
     78 H           9.2573   -4.5600    0.0000 H       1  UNL1        0.0620
     79 H           4.9272    2.9400    0.0000 H       1  UNL1        0.0618
     80 H          10.3312   -2.9400    0.0000 H       1  UNL1        0.0618
     81 H           6.8671    3.0600    0.0000 H       1  UNL1        0.0620
     82 H           8.3913   -3.0600    0.0000 H       1  UNL1        0.0620
     83 H           7.5252   -1.5600    0.0000 H       1  UNL1        0.0620
     84 H           7.7331    1.5600    0.0000 H       1  UNL1        0.0620
     85 H          10.1042   -1.7869    0.0000 H       1  UNL1        0.0278
     86 H          10.3312   -0.9400    0.0000 H       1  UNL1        0.0278
     87 H           9.4842   -0.7131    0.0000 H       1  UNL1        0.0278
     88 H           5.1541    1.7869    0.0000 H       1  UNL1        0.0278
     89 H           4.9272    0.9400    0.0000 H       1  UNL1        0.0278
     90 H           5.7741    0.7131    0.0000 H       1  UNL1        0.0278
     91 H           8.5991    0.0600    0.0000 H       1  UNL1        0.0618
     92 H           6.6592   -0.0600    0.0000 H       1  UNL1        0.0618
@<TRIPOS>BOND
     1     1    15    2
     2     2    16    2
     3     3     5    1
     4     3     7    1
     5     3     9    1
     6     3    10    1
     7     4     6    1
     8     4     8    1
     9     4    11    1
    10     4    12    1
    11     5    15    1
    12     5    43    1
    13     5    44    1
    14     6    16    1
    15     6    45    1
    16     6    46    1
    17     7    13    1
    18     7    19    2
    19     8    14    1
    20     8    20    2
    21     9    47    1
    22     9    48    1
    23     9    49    1
    24    10    50    1
    25    10    51    1
    26    10    52    1
    27    11    53    1
    28    11    54    1
    29    11    55    1
    30    12    56    1
    31    12    57    1
    32    12    58    1
    33    13    17    2
    34    13    21    1
    35    14    18    2
    36    14    22    1
    37    15    17    1
    38    16    18    1
    39    17    60    1
    40    18    59    1
    41    19    23    1
    42    19    61    1
    43    20    24    1
    44    20    62    1
    45    21    63    1
    46    21    64    1
    47    21    65    1
    48    22    66    1
    49    22    67    1
    50    22    68    1
    51    23    25    2
    52    23    69    1
    53    24    26    2
    54    24    70    1
    55    25    27    1
    56    25    29    1
    57    26    28    1
    58    26    30    1
    59    27    71    1
    60    27    72    1
    61    27    73    1
    62    28    74    1
    63    28    75    1
    64    28    76    1
    65    29    31    2
    66    29    78    1
    67    30    32    2
    68    30    77    1
    69    31    33    1
    70    31    80    1
    71    32    34    1
    72    32    79    1
    73    33    35    2
    74    33    82    1
    75    34    36    2
    76    34    81    1
    77    35    37    1
    78    35    39    1
    79    36    38    1
    80    36    40    1
    81    37    41    2
    82    37    83    1
    83    38    42    2
    84    38    84    1
    85    39    85    1
    86    39    86    1
    87    39    87    1
    88    40    88    1
    89    40    89    1
    90    40    90    1
    91    41    42    1
    92    41    91    1
    93    42    92    1
