@<TRIPOS>MOLECULE
IMPHY016108
 57 56 0 0 0
SMALL
GASTEIGER

@<TRIPOS>ATOM
      1 C           9.7942   -1.4400    0.0000 C.3     1  UNL1       -0.0531
      2 C          10.6603   -0.9400    0.0000 C.3     1  UNL1       -0.0531
      3 C           8.9282   -0.9400    0.0000 C.3     1  UNL1       -0.0531
      4 C          11.5263   -1.4400    0.0000 C.3     1  UNL1       -0.0531
      5 C           8.0622   -1.4400    0.0000 C.3     1  UNL1       -0.0530
      6 C          12.3923   -0.9400    0.0000 C.3     1  UNL1       -0.0531
      7 C           7.1962   -0.9400    0.0000 C.3     1  UNL1       -0.0528
      8 C          13.2583   -1.4400    0.0000 C.3     1  UNL1       -0.0531
      9 C           6.3301   -1.4400    0.0000 C.3     1  UNL1       -0.0496
     10 C          14.1244   -0.9400    0.0000 C.3     1  UNL1       -0.0533
     11 C           5.4641   -0.9400    0.0000 C.3     1  UNL1       -0.0348
     12 C          14.9904   -1.4400    0.0000 C.3     1  UNL1       -0.0559
     13 C           4.5981   -1.4400    0.0000 C.2     1  UNL1       -0.0879
     14 C          15.8564   -0.9400    0.0000 C.3     1  UNL1       -0.0653
     15 C           3.7320    0.0600    0.0000 C.3     1  UNL1       -0.0348
     16 C           3.7320   -0.9400    0.0000 C.2     1  UNL1       -0.0879
     17 C           2.8660    0.5600    0.0000 C.3     1  UNL1       -0.0499
     18 C           2.8660    1.5600    0.0000 C.3     1  UNL1       -0.0556
     19 C           2.0000    2.0600    0.0000 C.3     1  UNL1       -0.0653
     20 H           9.3957   -1.9150    0.0000 H       1  UNL1        0.0265
     21 H          10.1928   -1.9150    0.0000 H       1  UNL1        0.0265
     22 H          11.0588   -0.4651    0.0000 H       1  UNL1        0.0265
     23 H          10.2617   -0.4651    0.0000 H       1  UNL1        0.0265
     24 H           9.3267   -0.4651    0.0000 H       1  UNL1        0.0265
     25 H           8.5297   -0.4651    0.0000 H       1  UNL1        0.0265
     26 H          11.1278   -1.9150    0.0000 H       1  UNL1        0.0265
     27 H          11.9248   -1.9150    0.0000 H       1  UNL1        0.0265
     28 H           7.6636   -1.9150    0.0000 H       1  UNL1        0.0265
     29 H           8.4607   -1.9150    0.0000 H       1  UNL1        0.0265
     30 H          12.7908   -0.4651    0.0000 H       1  UNL1        0.0265
     31 H          11.9938   -0.4651    0.0000 H       1  UNL1        0.0265
     32 H           7.5947   -0.4651    0.0000 H       1  UNL1        0.0265
     33 H           6.7976   -0.4651    0.0000 H       1  UNL1        0.0265
     34 H          12.8598   -1.9150    0.0000 H       1  UNL1        0.0265
     35 H          13.6569   -1.9150    0.0000 H       1  UNL1        0.0265
     36 H           5.9316   -1.9150    0.0000 H       1  UNL1        0.0268
     37 H           6.7287   -1.9150    0.0000 H       1  UNL1        0.0268
     38 H          14.5229   -0.4651    0.0000 H       1  UNL1        0.0265
     39 H          13.7258   -0.4651    0.0000 H       1  UNL1        0.0265
     40 H           5.8626   -0.4651    0.0000 H       1  UNL1        0.0307
     41 H           5.0656   -0.4651    0.0000 H       1  UNL1        0.0307
     42 H          14.5919   -1.9150    0.0000 H       1  UNL1        0.0263
     43 H          15.3889   -1.9150    0.0000 H       1  UNL1        0.0263
     44 H           4.5981   -2.0600    0.0000 H       1  UNL1        0.0569
     45 H          16.1664   -1.4769    0.0000 H       1  UNL1        0.0230
     46 H          16.3933   -0.6300    0.0000 H       1  UNL1        0.0230
     47 H          15.5464   -0.4031    0.0000 H       1  UNL1        0.0230
     48 H           4.3426   -0.0477    0.0000 H       1  UNL1        0.0307
     49 H           3.9441    0.6426    0.0000 H       1  UNL1        0.0307
     50 H           3.1951   -1.2500    0.0000 H       1  UNL1        0.0569
     51 H           2.2554    0.6677    0.0000 H       1  UNL1        0.0268
     52 H           2.6540   -0.0226    0.0000 H       1  UNL1        0.0268
     53 H           3.4766    1.4523    0.0000 H       1  UNL1        0.0263
     54 H           3.0781    2.1426    0.0000 H       1  UNL1        0.0263
     55 H           2.3100    2.5969    0.0000 H       1  UNL1        0.0230
     56 H           1.4631    2.3700    0.0000 H       1  UNL1        0.0230
     57 H           1.6900    1.5231    0.0000 H       1  UNL1        0.0230
@<TRIPOS>BOND
     1     1     2    1
     2     1     3    1
     3     1    20    1
     4     1    21    1
     5     2     4    1
     6     2    22    1
     7     2    23    1
     8     3     5    1
     9     3    24    1
    10     3    25    1
    11     4     6    1
    12     4    26    1
    13     4    27    1
    14     5     7    1
    15     5    28    1
    16     5    29    1
    17     6     8    1
    18     6    30    1
    19     6    31    1
    20     7     9    1
    21     7    32    1
    22     7    33    1
    23     8    10    1
    24     8    34    1
    25     8    35    1
    26     9    11    1
    27     9    36    1
    28     9    37    1
    29    10    12    1
    30    10    38    1
    31    10    39    1
    32    11    13    1
    33    11    40    1
    34    11    41    1
    35    12    14    1
    36    12    42    1
    37    12    43    1
    38    13    16    2
    39    13    44    1
    40    14    45    1
    41    14    46    1
    42    14    47    1
    43    15    16    1
    44    15    17    1
    45    15    48    1
    46    15    49    1
    47    16    50    1
    48    17    18    1
    49    17    51    1
    50    17    52    1
    51    18    19    1
    52    18    53    1
    53    18    54    1
    54    19    55    1
    55    19    56    1
    56    19    57    1
