@<TRIPOS>MOLECULE
IMPHY002383
 24 26 0 0 0
SMALL
GASTEIGER
****
Created with ChemWriter - http://chemwriter.com
@<TRIPOS>ATOM
      1 C           5.1815    1.9959    0.0000 C.ar    1  UNL1        0.1544
      2 C           5.1815    2.9976    0.0000 C.ar    1  UNL1        0.1125
      3 O           4.3183    1.4988    0.0000 O.2     1  UNL1       -0.4530
      4 C           6.0520    1.4914    0.0000 C.ar    1  UNL1        0.0747
      5 C           4.3158    3.4996    0.0000 C.ar    1  UNL1        0.2047
      6 C           6.0496    3.5021    0.0000 C.ar    1  UNL1        0.2047
      7 C           3.4502    2.0009    0.0000 C.ar    1  UNL1        0.1516
      8 C           6.9226    1.9910    0.0000 C.ar    1  UNL1        0.1450
      9 C           3.4502    3.0001    0.0000 C.ar    1  UNL1        0.0769
     10 O           4.3158    4.5013    0.0000 O.2     1  UNL1       -0.2862
     11 C           6.9226    2.9976    0.0000 C.ar    1  UNL1        0.0792
     12 O           6.0471    4.5013    0.0000 O.3     1  UNL1       -0.2862
     13 C           2.5895    1.4988    0.0000 C.ar    1  UNL1        0.0783
     14 O           7.7883    1.4889    0.0000 O.3     1  UNL1       -0.4712
     15 C           2.5870    3.4922    0.0000 C.ar    1  UNL1        0.0463
     16 C           1.7288    1.9959    0.0000 C.ar    1  UNL1        0.1851
     17 C           8.6564    1.9885    0.0000 C.3     1  UNL1        0.2525
     18 C           1.7288    2.9951    0.0000 C.ar    1  UNL1        0.1734
     19 O           0.8632    1.4988    0.0000 O.3     1  UNL1       -0.4209
     20 O           0.8632    3.4947    0.0000 O.3     1  UNL1       -0.4683
     21 C           0.8632    0.4971    0.0000 C.2     1  UNL1        0.3221
     22 C           0.8607    4.4939    0.0000 C.3     1  UNL1        0.2526
     23 O           0.0000    0.0000    0.0000 O.2     1  UNL1       -0.2497
     24 C           1.7288    0.0000    0.0000 C.3     1  UNL1        0.1216
@<TRIPOS>BOND
     1     1     2   ar
     2     1     3   ar
     3     1     4   ar
     4     2     5   ar
     5     2     6   ar
     6     3     7   ar
     7     4     8   ar
     8     5     9   ar
     9     5    10    2
    10     6    11   ar
    11     6    12    1
    12     7     9   ar
    13     7    13   ar
    14     8    11   ar
    15     8    14    1
    16     9    15   ar
    17    13    16   ar
    18    14    17    1
    19    15    18   ar
    20    16    18   ar
    21    16    19    1
    22    18    20    1
    23    19    21    1
    24    20    22    1
    25    21    23    2
    26    21    24    1
