@<TRIPOS>MOLECULE
IMPHY010352
 54 57 0 0 0
SMALL
GASTEIGER

@<TRIPOS>ATOM
      1 O           5.1350   -1.2836    0.0000 O.3     1  UNL1       -0.3313
      2 O           6.8671   -1.2836    0.0000 O.3     1  UNL1       -0.4532
      3 O           5.1350   -4.2836    0.0000 O.3     1  UNL1       -0.3864
      4 O           3.4030   -3.2836    0.0000 O.3     1  UNL1       -0.3865
      5 O           6.8671   -3.2836    0.0000 O.3     1  UNL1       -0.3829
      6 O           2.5369   -1.7836    0.0000 O.3     1  UNL1       -0.3924
      7 O           7.7331    1.2164    0.0000 O.2     1  UNL1       -0.4507
      8 O           5.1350   -0.2836    0.0000 O.2     1  UNL1       -0.2830
      9 O           4.2308    1.2133    0.0000 O.3     1  UNL1       -0.5027
     10 O           4.2151    3.2615    0.0000 O.3     1  UNL1       -0.5009
     11 O           5.9889    4.2857    0.0000 O.3     1  UNL1       -0.5031
     12 O          11.1972    0.2164    0.0000 O.3     1  UNL1       -0.5033
     13 O          11.1972   -1.7836    0.0000 O.3     1  UNL1       -0.5033
     14 C           5.1350   -3.2836    0.0000 C.3     1  UNL1        0.1152
     15 C           4.2690   -2.7836    0.0000 C.3     1  UNL1        0.1120
     16 C           6.0010   -2.7836    0.0000 C.3     1  UNL1        0.1454
     17 C           4.2690   -1.7836    0.0000 C.3     1  UNL1        0.1140
     18 C           6.0010   -1.7836    0.0000 C.3     1  UNL1        0.2311
     19 C           3.4030   -1.2836    0.0000 C.3     1  UNL1        0.0731
     20 C           6.8671   -0.2836    0.0000 C.ar    1  UNL1        0.2138
     21 C           7.7331    0.2164    0.0000 C.ar    1  UNL1        0.1810
     22 C           6.0010    0.2164    0.0000 C.ar    1  UNL1        0.2383
     23 C           6.0010    1.2164    0.0000 C.ar    1  UNL1        0.1128
     24 C           6.8671    1.7164    0.0000 C.ar    1  UNL1        0.1468
     25 C           8.5991   -0.2836    0.0000 C.ar    1  UNL1        0.0247
     26 C           5.0910    1.7232    0.0000 C.ar    1  UNL1        0.1767
     27 C           6.8831    2.7579    0.0000 C.ar    1  UNL1        0.0268
     28 C           9.4651    0.2164    0.0000 C.ar    1  UNL1       -0.0057
     29 C           8.5991   -1.2836    0.0000 C.ar    1  UNL1       -0.0473
     30 C           5.0830    2.7648    0.0000 C.ar    1  UNL1        0.2015
     31 C           5.9851    3.2857    0.0000 C.ar    1  UNL1        0.1655
     32 C          10.3312   -0.2836    0.0000 C.ar    1  UNL1        0.1589
     33 C           9.4651   -1.7836    0.0000 C.ar    1  UNL1       -0.0159
     34 C          10.3312   -1.2836    0.0000 C.ar    1  UNL1        0.1583
     35 H           5.6720   -3.5936    0.0000 H       1  UNL1        0.0648
     36 H           4.2690   -3.4036    0.0000 H       1  UNL1        0.0647
     37 H           6.5380   -2.4736    0.0000 H       1  UNL1        0.0683
     38 H           4.2690   -1.1636    0.0000 H       1  UNL1        0.0647
     39 H           6.0010   -1.1636    0.0000 H       1  UNL1        0.1084
     40 H           3.8015   -0.8086    0.0000 H       1  UNL1        0.0584
     41 H           3.0044   -0.8086    0.0000 H       1  UNL1        0.0584
     42 H           4.5981   -4.5936    0.0000 H       1  UNL1        0.2100
     43 H           3.4030   -3.9036    0.0000 H       1  UNL1        0.2100
     44 H           6.8671   -3.9036    0.0000 H       1  UNL1        0.2102
     45 H           2.0000   -1.4736    0.0000 H       1  UNL1        0.2095
     46 H           7.4236    3.0617    0.0000 H       1  UNL1        0.0692
     47 H           9.4651    0.8364    0.0000 H       1  UNL1        0.0662
     48 H           8.0622   -1.5936    0.0000 H       1  UNL1        0.0626
     49 H           9.4651   -2.4036    0.0000 H       1  UNL1        0.0655
     50 H           3.6904    1.5170    0.0000 H       1  UNL1        0.2923
     51 H           4.2127    3.8815    0.0000 H       1  UNL1        0.2924
     52 H           6.5271    4.5936    0.0000 H       1  UNL1        0.2923
     53 H          11.1972    0.8364    0.0000 H       1  UNL1        0.2923
     54 H          11.1972   -2.4036    0.0000 H       1  UNL1        0.2923
@<TRIPOS>BOND
     1     1    17    1
     2     1    18    1
     3    18     2    1
     4     2    20    1
     5     3    14    1
     6     3    42    1
     7    15     4    1
     8     4    43    1
     9     5    16    1
    10     5    44    1
    11     6    19    1
    12     6    45    1
    13     7    21   ar
    14     7    24   ar
    15     8    22    2
    16     9    26    1
    17     9    50    1
    18    10    30    1
    19    10    51    1
    20    11    31    1
    21    11    52    1
    22    12    32    1
    23    12    53    1
    24    13    34    1
    25    13    54    1
    26    14    15    1
    27    14    16    1
    28    14    35    1
    29    15    17    1
    30    15    36    1
    31    16    18    1
    32    16    37    1
    33    17    19    1
    34    17    38    1
    35    18    39    1
    36    19    40    1
    37    19    41    1
    38    20    21   ar
    39    20    22   ar
    40    21    25    1
    41    22    23   ar
    42    23    24   ar
    43    23    26   ar
    44    24    27   ar
    45    25    28   ar
    46    25    29   ar
    47    26    30   ar
    48    27    31   ar
    49    27    46    1
    50    28    32   ar
    51    28    47    1
    52    29    33   ar
    53    29    48    1
    54    30    31   ar
    55    32    34   ar
    56    33    34   ar
    57    33    49    1
