@<TRIPOS>MOLECULE
IMPHY000605
 42 43 0 0 0
SMALL
GASTEIGER

@<TRIPOS>ATOM
      1 O           5.1043    1.0714    0.0000 O.3     1  UNL1       -0.3917
      2 N           7.9846    0.2455    0.0000 N.3     1  UNL1       -0.3023
      3 N           2.8090   -0.8546    0.0000 N.3     1  UNL1       -0.3023
      4 C           7.0064    0.4534    0.0000 C.3     1  UNL1        0.0125
      5 C           3.6180   -0.2668    0.0000 C.3     1  UNL1        0.0125
      6 C           6.2633   -0.2158    0.0000 C.3     1  UNL1       -0.0111
      7 C           4.5691   -0.5759    0.0000 C.3     1  UNL1       -0.0111
      8 C           5.3122    0.0933    0.0000 C.3     1  UNL1        0.0581
      9 C           6.9019    1.4479    0.0000 C.3     1  UNL1       -0.0361
     10 C           3.3090    0.6842    0.0000 C.3     1  UNL1       -0.0361
     11 C           7.8154    1.8546    0.0000 C.3     1  UNL1       -0.0388
     12 C           2.3090    0.6842    0.0000 C.3     1  UNL1       -0.0388
     13 C           8.4846    1.1115    0.0000 C.3     1  UNL1       -0.0011
     14 C           2.0000   -0.2668    0.0000 C.3     1  UNL1       -0.0011
     15 C           8.3913   -0.6681    0.0000 C.3     1  UNL1       -0.0125
     16 C           2.8090   -1.8546    0.0000 C.3     1  UNL1       -0.0125
     17 H           7.1669   -0.1455    0.0000 H       1  UNL1        0.0463
     18 H           3.7150   -0.8792    0.0000 H       1  UNL1        0.0463
     19 H           5.9722   -0.7632    0.0000 H       1  UNL1        0.0305
     20 H           6.7519   -0.5975    0.0000 H       1  UNL1        0.0305
     21 H           4.2780   -1.1233    0.0000 H       1  UNL1        0.0305
     22 H           5.0577   -0.9576    0.0000 H       1  UNL1        0.0305
     23 H           4.7226    0.2849    0.0000 H       1  UNL1        0.0594
     24 H           6.7103    2.0376    0.0000 H       1  UNL1        0.0281
     25 H           6.2955    1.3190    0.0000 H       1  UNL1        0.0281
     26 H           3.9155    0.8131    0.0000 H       1  UNL1        0.0281
     27 H           3.2442    1.3008    0.0000 H       1  UNL1        0.0281
     28 H           8.3170    2.2191    0.0000 H       1  UNL1        0.0278
     29 H           7.5054    2.3916    0.0000 H       1  UNL1        0.0278
     30 H           2.3738    1.3008    0.0000 H       1  UNL1        0.0278
     31 H           1.7026    0.8131    0.0000 H       1  UNL1        0.0278
     32 H           8.9862    0.7471    0.0000 H       1  UNL1        0.0426
     33 H           8.8994    1.5722    0.0000 H       1  UNL1        0.0426
     34 H           1.4336   -0.0147    0.0000 H       1  UNL1        0.0426
     35 H           1.6900   -0.8038    0.0000 H       1  UNL1        0.0426
     36 H           7.8249   -0.9203    0.0000 H       1  UNL1        0.0391
     37 H           8.6435   -1.2345    0.0000 H       1  UNL1        0.0391
     38 H           8.9577   -0.4159    0.0000 H       1  UNL1        0.0391
     39 H           2.1890   -1.8546    0.0000 H       1  UNL1        0.0391
     40 H           2.8090   -2.4746    0.0000 H       1  UNL1        0.0391
     41 H           3.4290   -1.8546    0.0000 H       1  UNL1        0.0391
     42 H           5.5651    1.4863    0.0000 H       1  UNL1        0.2098
@<TRIPOS>BOND
     1     1     8    1
     2     1    42    1
     3     2     4    1
     4     2    13    1
     5     2    15    1
     6     3     5    1
     7     3    14    1
     8     3    16    1
     9     4     6    1
    10     4     9    1
    11     4    17    1
    12     5     7    1
    13     5    10    1
    14     5    18    1
    15     6     8    1
    16     6    19    1
    17     6    20    1
    18     7     8    1
    19     7    21    1
    20     7    22    1
    21     8    23    1
    22     9    11    1
    23     9    24    1
    24     9    25    1
    25    10    12    1
    26    10    26    1
    27    10    27    1
    28    11    13    1
    29    11    28    1
    30    11    29    1
    31    12    14    1
    32    12    30    1
    33    12    31    1
    34    13    32    1
    35    13    33    1
    36    14    34    1
    37    14    35    1
    38    15    36    1
    39    15    37    1
    40    15    38    1
    41    16    39    1
    42    16    40    1
    43    16    41    1
