@<TRIPOS>MOLECULE
IMPHY014420
 121 133 0 0 0
SMALL
GASTEIGER

@<TRIPOS>ATOM
      1 O           4.4300   -1.7187    0.0000 O.3     1  UNL1       -0.4753
      2 O           6.8954   -1.4663    0.0000 O.3     1  UNL1       -0.4562
      3 O           7.6999   -1.6245    0.0000 O.3     1  UNL1       -0.4502
      4 O           6.0196    1.2213    0.0000 O.3     1  UNL1       -0.4808
      5 O           3.8078   -2.5763    0.0000 O.2     1  UNL1       -0.2844
      6 O           4.7461   -4.4166    0.0000 O.2     1  UNL1       -0.5031
      7 O           7.1774   -3.0640    0.0000 O.2     1  UNL1       -0.2500
      8 O           7.9070    0.9839    0.0000 O.3     1  UNL1       -0.4501
      9 O           9.6318   -1.1069    0.0000 O.3     1  UNL1       -0.4505
     10 O           2.5452    1.3352    0.0000 O.3     1  UNL1       -0.5063
     11 O           5.0978    3.6958    0.0000 O.3     1  UNL1       -0.3875
     12 O           6.0834   -5.0088    0.0000 O.3     1  UNL1       -0.5028
     13 O           8.6658   -1.3657    0.0000 O.2     1  UNL1       -0.2449
     14 O           9.3730    1.2733    0.0000 O.3     1  UNL1       -0.4573
     15 O           7.6128   -6.3321    0.0000 O.3     1  UNL1       -0.5009
     16 O           9.5044   -5.6165    0.0000 O.3     1  UNL1       -0.5028
     17 O           9.4032    1.7628    0.0000 O.2     1  UNL1       -0.2449
     18 O           9.1141   -3.0387    0.0000 O.2     1  UNL1       -0.2449
     19 O          10.2764   -5.4565    0.0000 O.3     1  UNL1       -0.5028
     20 O           7.7004    5.1206    0.0000 O.3     1  UNL1       -0.5033
     21 O          12.2589   -4.9416    0.0000 O.3     1  UNL1       -0.5009
     22 O           8.5975    3.0872    0.0000 O.2     1  UNL1       -0.2449
     23 O          12.7890   -2.9631    0.0000 O.3     1  UNL1       -0.5032
     24 O           9.5729    4.0740    0.0000 O.3     1  UNL1       -0.5033
     25 O           6.6586    4.8845    0.0000 O.3     1  UNL1       -0.5028
     26 O           4.8769    1.8258    0.0000 O.3     1  UNL1       -0.5032
     27 O           4.7555    3.2009    0.0000 O.3     1  UNL1       -0.5009
     28 O           7.8810    5.7516    0.0000 O.3     1  UNL1       -0.5028
     29 O           9.2851    6.4192    0.0000 O.3     1  UNL1       -0.5009
     30 O          11.0590    5.3950    0.0000 O.3     1  UNL1       -0.5032
     31 C           5.4086   -1.8559    0.0000 C.3     1  UNL1        0.2027
     32 C           5.8418   -0.9612    0.0000 C.3     1  UNL1        0.0801
     33 C           5.5710   -2.8367    0.0000 C.3     1  UNL1        0.1332
     34 C           6.7118   -0.4802    0.0000 C.3     1  UNL1        0.1545
     35 C           5.1272   -0.2786    0.0000 C.ar    1  UNL1        0.0474
     36 C           4.8041   -2.6621    0.0000 C.2     1  UNL1        0.2424
     37 C           7.6999   -0.5892    0.0000 C.3     1  UNL1        0.1809
     38 C           6.2694   -3.5442    0.0000 C.2     1  UNL1        0.0272
     39 C           4.2564   -0.7459    0.0000 C.ar    1  UNL1        0.1327
     40 C           6.4583   -2.3691    0.0000 C.2     1  UNL1        0.3195
     41 C           5.2618   -3.5599    0.0000 C.2     1  UNL1        0.1683
     42 C           5.1751    0.7496    0.0000 C.ar    1  UNL1        0.1354
     43 C           8.4070    0.1179    0.0000 C.3     1  UNL1        0.1834
     44 C           7.2479   -3.7191    0.0000 C.ar    1  UNL1        0.0426
     45 C           4.3043    1.2985    0.0000 C.ar    1  UNL1        0.0387
     46 C           3.3732   -0.2173    0.0000 C.ar    1  UNL1        0.0224
     47 C           9.3730   -0.1410    0.0000 C.3     1  UNL1        0.1774
     48 C           3.3973    0.8118    0.0000 C.ar    1  UNL1        0.1271
     49 C           8.1482   -3.2976    0.0000 C.ar    1  UNL1        0.0815
     50 C           4.3656    2.2639    0.0000 C.3     1  UNL1        0.0092
     51 C           6.0453    2.1883    0.0000 C.3     1  UNL1        0.1513
     52 C           5.2270    2.7041    0.0000 C.3     1  UNL1        0.1004
     53 C           8.4070   -2.3316    0.0000 C.2     1  UNL1        0.3411
     54 C           7.0326   -4.6942    0.0000 C.ar    1  UNL1        0.1705
     55 C           8.8553   -4.0047    0.0000 C.ar    1  UNL1        0.0464
     56 C          10.0801    0.5662    0.0000 C.3     1  UNL1        0.1333
     57 C           7.7877   -5.3475    0.0000 C.ar    1  UNL1        0.2019
     58 C           6.9272    2.6597    0.0000 C.ar    1  UNL1       -0.0012
     59 C           8.7217   -4.9942    0.0000 C.ar    1  UNL1        0.1708
     60 C           9.8212   -3.7458    0.0000 C.ar    1  UNL1        0.0458
     61 C           8.4070    1.8499    0.0000 C.2     1  UNL1        0.3405
     62 C           9.3730   -2.0728    0.0000 C.2     1  UNL1        0.3405
     63 C          10.0801   -2.7799    0.0000 C.ar    1  UNL1        0.0740
     64 C           6.9599    3.6592    0.0000 C.ar    1  UNL1       -0.0098
     65 C           7.7764    2.1317    0.0000 C.ar    1  UNL1       -0.0513
     66 C          10.5463   -4.4936    0.0000 C.ar    1  UNL1        0.1708
     67 C           7.5410    2.3499    0.0000 C.ar    1  UNL1        0.0740
     68 C          11.0819   -2.4948    0.0000 C.ar    1  UNL1       -0.0017
     69 C           7.8418    4.1306    0.0000 C.ar    1  UNL1        0.1586
     70 C           9.2730    2.3499    0.0000 C.2     1  UNL1        0.3401
     71 C           8.6584    2.6031    0.0000 C.ar    1  UNL1       -0.0162
     72 C          11.5545   -4.2318    0.0000 C.ar    1  UNL1        0.2012
     73 C           7.5410    3.3499    0.0000 C.ar    1  UNL1        0.0458
     74 C          11.8241   -3.2257    0.0000 C.ar    1  UNL1        0.1628
     75 C           8.6910    3.6026    0.0000 C.ar    1  UNL1        0.1582
     76 C           6.6470    1.8153    0.0000 C.ar    1  UNL1       -0.0017
     77 C           9.2730    3.3499    0.0000 C.ar    1  UNL1        0.0740
     78 C           8.4070    3.8499    0.0000 C.ar    1  UNL1        0.0458
     79 C           6.6470    3.8846    0.0000 C.ar    1  UNL1        0.1708
     80 C           5.7410    2.3291    0.0000 C.ar    1  UNL1        0.1628
     81 C           5.7410    3.3707    0.0000 C.ar    1  UNL1        0.2012
     82 C           8.3910    4.8914    0.0000 C.ar    1  UNL1        0.1708
     83 C          10.1830    3.8568    0.0000 C.ar    1  UNL1       -0.0017
     84 C           9.2890    5.4192    0.0000 C.ar    1  UNL1        0.2012
     85 C          10.1911    4.8984    0.0000 C.ar    1  UNL1        0.1628
     86 H           5.7968   -0.3428    0.0000 H       1  UNL1        0.0433
     87 H           5.0186   -3.1183    0.0000 H       1  UNL1        0.0509
     88 H           6.4615    0.3321    0.0000 H       1  UNL1        0.0780
     89 H           7.0668   -1.1564    0.0000 H       1  UNL1        0.0811
     90 H           7.5643    0.2288    0.0000 H       1  UNL1        0.0812
     91 H           2.8303   -0.5167    0.0000 H       1  UNL1        0.0691
     92 H          10.1940   -0.3609    0.0000 H       1  UNL1        0.0808
     93 H           4.1860    2.8573    0.0000 H       1  UNL1        0.0342
     94 H           3.7497    2.1926    0.0000 H       1  UNL1        0.0342
     95 H           6.5728    1.8625    0.0000 H       1  UNL1        0.0811
     96 H           5.7493    3.0382    0.0000 H       1  UNL1        0.0637
     97 H           4.1262   -4.4053    0.0000 H       1  UNL1        0.2923
     98 H          10.5185    0.1277    0.0000 H       1  UNL1        0.0736
     99 H          10.5185    1.0046    0.0000 H       1  UNL1        0.0736
    100 H           2.0000    1.0400    0.0000 H       1  UNL1        0.2921
    101 H           5.5902    4.0725    0.0000 H       1  UNL1        0.2100
    102 H           5.9581   -5.6160    0.0000 H       1  UNL1        0.2923
    103 H           6.4334    3.9866    0.0000 H       1  UNL1        0.0659
    104 H           7.7562    1.5120    0.0000 H       1  UNL1        0.0623
    105 H           8.0873   -6.7312    0.0000 H       1  UNL1        0.2924
    106 H           9.4130   -6.2297    0.0000 H       1  UNL1        0.2923
    107 H          11.2354   -1.8942    0.0000 H       1  UNL1        0.0664
    108 H           9.1849    2.2757    0.0000 H       1  UNL1        0.0655
    109 H           6.6542    1.1953    0.0000 H       1  UNL1        0.0664
    110 H          10.7097   -5.9000    0.0000 H       1  UNL1        0.2923
    111 H           7.1251    5.3515    0.0000 H       1  UNL1        0.2923
    112 H          10.7164    3.5406    0.0000 H       1  UNL1        0.0664
    113 H          12.8584   -4.7835    0.0000 H       1  UNL1        0.2924
    114 H          12.9472   -2.3636    0.0000 H       1  UNL1        0.2923
    115 H           9.5932    4.6937    0.0000 H       1  UNL1        0.2923
    116 H           6.1253    5.2007    0.0000 H       1  UNL1        0.2923
    117 H           4.8793    1.2058    0.0000 H       1  UNL1        0.2923
    118 H           4.3588    3.6774    0.0000 H       1  UNL1        0.2924
    119 H           8.1848    6.2921    0.0000 H       1  UNL1        0.2923
    120 H           9.8209    6.7312    0.0000 H       1  UNL1        0.2924
    121 H          11.5948    5.0830    0.0000 H       1  UNL1        0.2923
@<TRIPOS>BOND
     1     1    31    1
     2     1    39    1
     3     2    34    1
     4     2    40    1
     5     3    37    1
     6     3    53    1
     7     4    42    1
     8     4    51    1
     9     5    36    2
    10     6    41    1
    11     6    97    1
    12     7    40    2
    13     8    43    1
    14     8    61    1
    15     9    47    1
    16     9    62    1
    17    10    48    1
    18    10   100    1
    19    52    11    1
    20    11   101    1
    21    12    54    1
    22    12   102    1
    23    13    53    2
    24    14    56    1
    25    14    70    1
    26    15    57    1
    27    15   105    1
    28    16    59    1
    29    16   106    1
    30    17    61    2
    31    18    62    2
    32    19    66    1
    33    19   110    1
    34    20    69    1
    35    20   111    1
    36    21    72    1
    37    21   113    1
    38    22    70    2
    39    23    74    1
    40    23   114    1
    41    24    75    1
    42    24   115    1
    43    25    79    1
    44    25   116    1
    45    26    80    1
    46    26   117    1
    47    27    81    1
    48    27   118    1
    49    28    82    1
    50    28   119    1
    51    29    84    1
    52    29   120    1
    53    30    85    1
    54    30   121    1
    55    31    32    1
    56    31    33    1
    57    31    36    1
    58    32    34    1
    59    32    35    1
    60    32    86    1
    61    33    38    1
    62    33    40    1
    63    33    87    1
    64    34    37    1
    65    34    88    1
    66    35    39   ar
    67    35    42   ar
    68    36    41    1
    69    37    43    1
    70    37    89    1
    71    38    41    2
    72    38    44    1
    73    39    46   ar
    74    42    45   ar
    75    43    47    1
    76    43    90    1
    77    44    49   ar
    78    44    54   ar
    79    45    48   ar
    80    45    50    1
    81    46    48   ar
    82    46    91    1
    83    47    56    1
    84    47    92    1
    85    49    53    1
    86    49    55   ar
    87    50    52    1
    88    50    93    1
    89    50    94    1
    90    51    52    1
    91    51    58    1
    92    51    95    1
    93    52    96    1
    94    54    57   ar
    95    55    59   ar
    96    55    60    1
    97    56    98    1
    98    56    99    1
    99    57    59   ar
   100    58    64   ar
   101    58    65   ar
   102    60    63   ar
   103    60    66   ar
   104    61    67    1
   105    62    63    1
   106    63    68   ar
   107    64    69   ar
   108    64   103    1
   109    65    71   ar
   110    65   104    1
   111    66    72   ar
   112    67    73   ar
   113    67    76   ar
   114    68    74   ar
   115    68   107    1
   116    69    75   ar
   117    70    77    1
   118    71    75   ar
   119    71   108    1
   120    72    74   ar
   121    73    78    1
   122    73    79   ar
   123    76    80   ar
   124    76   109    1
   125    77    78   ar
   126    77    83   ar
   127    78    82   ar
   128    79    81   ar
   129    80    81   ar
   130    82    84   ar
   131    83    85   ar
   132    83   112    1
   133    84    85   ar
