@<TRIPOS>MOLECULE
IMPHY001213
 20 20 0 0 0
SMALL
GASTEIGER

@<TRIPOS>ATOM
      1 O           2.5369    0.6550    0.0000 O.3     1  UNL1       -0.3862
      2 O           4.2690    1.6550    0.0000 O.3     1  UNL1       -0.3862
      3 O           2.5369   -1.3450    0.0000 O.3     1  UNL1       -0.3851
      4 O           6.0010    0.6550    0.0000 O.3     1  UNL1       -0.3851
      5 C           4.2690    0.6550    0.0000 C.3     1  UNL1        0.1131
      6 C           3.4030    0.1550    0.0000 C.3     1  UNL1        0.1131
      7 C           3.4030   -0.8450    0.0000 C.3     1  UNL1        0.1018
      8 C           5.1350    0.1550    0.0000 C.3     1  UNL1        0.1018
      9 C           5.1350   -0.8450    0.0000 C.2     1  UNL1       -0.0548
     10 C           4.2690   -1.3450    0.0000 C.2     1  UNL1       -0.0548
     11 H           4.8059    0.9650    0.0000 H       1  UNL1        0.0649
     12 H           3.4030    0.7750    0.0000 H       1  UNL1        0.0649
     13 H           3.4030   -1.4650    0.0000 H       1  UNL1        0.0664
     14 H           5.6720   -0.1550    0.0000 H       1  UNL1        0.0664
     15 H           5.6720   -1.1550    0.0000 H       1  UNL1        0.0596
     16 H           4.2690   -1.9650    0.0000 H       1  UNL1        0.0596
     17 H           4.8059    1.9650    0.0000 H       1  UNL1        0.2100
     18 H           2.0000    0.3450    0.0000 H       1  UNL1        0.2100
     19 H           2.5369   -1.9650    0.0000 H       1  UNL1        0.2103
     20 H           6.5380    0.3450    0.0000 H       1  UNL1        0.2103
@<TRIPOS>BOND
     1     6     1    1
     2     1    18    1
     3     5     2    1
     4     2    17    1
     5     7     3    1
     6     3    19    1
     7     8     4    1
     8     4    20    1
     9     5     6    1
    10     5     8    1
    11     5    11    1
    12     6     7    1
    13     6    12    1
    14     7    10    1
    15     7    13    1
    16     8     9    1
    17     8    14    1
    18     9    10    2
    19     9    15    1
    20    10    16    1
