@<TRIPOS>MOLECULE
IMPHY008602
 33 34 0 0 0
SMALL
GASTEIGER

@<TRIPOS>ATOM
      1 S           7.2566    1.7955    0.0000 S.3     1  UNL1       -0.1050
      2 S           5.6103    2.3336    0.0000 S.3     1  UNL1       -0.1050
      3 O           4.9889   -3.0779    0.0000 O.3     1  UNL1       -0.4147
      4 O           4.3211    1.1769    0.0000 O.2     1  UNL1       -0.2679
      5 N           4.6783   -2.1274    0.0000 N.ar    1  UNL1       -0.1891
      6 N           5.9674    0.6388    0.0000 N.am    1  UNL1       -0.1628
      7 C           3.7320   -0.8227    0.0000 C.ar    1  UNL1        0.0154
      8 C           3.7320   -1.8227    0.0000 C.ar    1  UNL1        0.0881
      9 C           4.6783   -0.5179    0.0000 C.ar    1  UNL1        0.0673
     10 C           5.2619   -1.3227    0.0000 C.ar    1  UNL1        0.0574
     11 C           2.8660   -0.3227    0.0000 C.ar    1  UNL1       -0.0517
     12 C           2.8660   -2.3227    0.0000 C.ar    1  UNL1       -0.0343
     13 C           2.0000   -0.8227    0.0000 C.ar    1  UNL1       -0.0611
     14 C           2.0000   -1.8227    0.0000 C.ar    1  UNL1       -0.0597
     15 C           4.9889    0.4326    0.0000 C.2     1  UNL1        0.2708
     16 C           5.9674   -3.2841    0.0000 C.3     1  UNL1        0.1052
     17 C           6.2781    1.5893    0.0000 C.2     1  UNL1        0.1229
     18 C           5.9209    3.2841    0.0000 C.3     1  UNL1       -0.0118
     19 C           7.5673    2.7461    0.0000 C.3     1  UNL1       -0.0118
     20 H           5.8819   -1.3227    0.0000 H       1  UNL1        0.0852
     21 H           2.8660    0.2973    0.0000 H       1  UNL1        0.0624
     22 H           2.8660   -2.9427    0.0000 H       1  UNL1        0.0639
     23 H           1.4631   -0.5127    0.0000 H       1  UNL1        0.0618
     24 H           1.4631   -2.1327    0.0000 H       1  UNL1        0.0618
     25 H           5.8396   -3.8908    0.0000 H       1  UNL1        0.0686
     26 H           6.5741   -3.4120    0.0000 H       1  UNL1        0.0686
     27 H           6.0953   -2.6775    0.0000 H       1  UNL1        0.0686
     28 H           8.1566    2.5535    0.0000 H       1  UNL1        0.0344
     29 H           7.7599    3.3354    0.0000 H       1  UNL1        0.0344
     30 H           6.9780    2.9387    0.0000 H       1  UNL1        0.0344
     31 H           6.5102    3.0915    0.0000 H       1  UNL1        0.0344
     32 H           6.1135    3.8735    0.0000 H       1  UNL1        0.0344
     33 H           5.3316    3.4768    0.0000 H       1  UNL1        0.0344
@<TRIPOS>BOND
     1     1    17    1
     2     1    19    1
     3     2    17    1
     4     2    18    1
     5     3     5    1
     6     3    16    1
     7     4    15    2
     8     5     8   ar
     9     5    10   ar
    10     6    15    1
    11     6    17    2
    12     7     8   ar
    13     7     9   ar
    14     7    11   ar
    15     8    12   ar
    16     9    10   ar
    17     9    15    1
    18    10    20    1
    19    11    13   ar
    20    11    21    1
    21    12    14   ar
    22    12    22    1
    23    13    14   ar
    24    13    23    1
    25    14    24    1
    26    16    25    1
    27    16    26    1
    28    16    27    1
    29    18    31    1
    30    18    32    1
    31    18    33    1
    32    19    28    1
    33    19    29    1
    34    19    30    1
