@<TRIPOS>MOLECULE
IMPHY010858
 42 46 0 0 0
SMALL
GASTEIGER

@<TRIPOS>ATOM
      1 O           3.9852   -1.9245    0.0000 O.3     1  UNL1       -0.4815
      2 O           7.2192   -0.1905    0.0000 O.2     1  UNL1       -0.4537
      3 O           7.4284    2.7813    0.0000 O.2     1  UNL1       -0.4214
      4 O           5.6964    2.7813    0.0000 O.2     1  UNL1       -0.2444
      5 O          10.9585    2.8054    0.0000 O.3     1  UNL1       -0.4950
      6 C           2.9116   -1.8209    0.0000 C.3     1  UNL1        0.1235
      7 C           5.8254    0.6142    0.0000 C.ar    1  UNL1        0.0356
      8 C           4.1829   -0.0961    0.0000 C.ar    1  UNL1        0.0173
      9 C           4.6049   -1.0417    0.0000 C.ar    1  UNL1        0.1324
     10 C           6.2305   -0.2936    0.0000 C.ar    1  UNL1        0.1400
     11 C           6.5624    1.2813    0.0000 C.ar    1  UNL1        0.1128
     12 C           7.4284    0.7813    0.0000 C.ar    1  UNL1        0.1538
     13 C           4.7972    0.7374    0.0000 C.ar    1  UNL1       -0.0395
     14 C           2.4721   -0.8360    0.0000 C.2     1  UNL1       -0.0409
     15 C           5.6356   -1.1411    0.0000 C.ar    1  UNL1        0.0236
     16 C           3.1120    0.0322    0.0000 C.2     1  UNL1       -0.0513
     17 C           8.2944    1.2813    0.0000 C.ar    1  UNL1        0.0607
     18 C           2.0000   -2.2320    0.0000 C.3     1  UNL1       -0.0215
     19 C           2.8118   -2.8160    0.0000 C.3     1  UNL1       -0.0215
     20 C           8.2944    2.2813    0.0000 C.ar    1  UNL1        0.1461
     21 C           6.5624    2.2813    0.0000 C.ar    1  UNL1        0.3488
     22 C           9.1884    0.7466    0.0000 C.ar    1  UNL1       -0.0441
     23 C           9.1884    2.8160    0.0000 C.ar    1  UNL1        0.0232
     24 C          10.0944    1.2605    0.0000 C.ar    1  UNL1       -0.0191
     25 C          10.0944    2.3021    0.0000 C.ar    1  UNL1        0.1236
     26 C          11.8265    2.3088    0.0000 C.3     1  UNL1        0.0788
     27 H           4.5512    1.3065    0.0000 H       1  UNL1        0.0632
     28 H           1.8557   -0.7693    0.0000 H       1  UNL1        0.0611
     29 H           5.8948   -1.7043    0.0000 H       1  UNL1        0.0691
     30 H           2.8659    0.6013    0.0000 H       1  UNL1        0.0623
     31 H           1.7452   -1.6668    0.0000 H       1  UNL1        0.0271
     32 H           1.4348   -2.4868    0.0000 H       1  UNL1        0.0271
     33 H           2.2548   -2.7972    0.0000 H       1  UNL1        0.0271
     34 H           2.1949   -2.7540    0.0000 H       1  UNL1        0.0271
     35 H           2.7499   -3.4328    0.0000 H       1  UNL1        0.0271
     36 H           3.4287   -2.8778    0.0000 H       1  UNL1        0.0271
     37 H           9.1812    0.1267    0.0000 H       1  UNL1        0.0627
     38 H           9.1812    3.4359    0.0000 H       1  UNL1        0.0691
     39 H          10.6302    0.9484    0.0000 H       1  UNL1        0.0654
     40 H          11.5185    1.7706    0.0000 H       1  UNL1        0.0660
     41 H          12.3646    2.0008    0.0000 H       1  UNL1        0.0660
     42 H          12.1344    2.8469    0.0000 H       1  UNL1        0.0660
@<TRIPOS>BOND
     1     1     6    1
     2     1     9    1
     3     2    10   ar
     4     2    12   ar
     5     3    20   ar
     6     3    21   ar
     7     4    21    2
     8     5    25    1
     9     5    26    1
    10     6    14    1
    11     6    18    1
    12     6    19    1
    13     7    10   ar
    14     7    11   ar
    15     7    13   ar
    16     8     9   ar
    17     8    13   ar
    18     8    16    1
    19     9    15   ar
    20    10    15   ar
    21    11    12   ar
    22    11    21   ar
    23    12    17   ar
    24    13    27    1
    25    14    16    2
    26    14    28    1
    27    15    29    1
    28    16    30    1
    29    17    20   ar
    30    17    22   ar
    31    18    31    1
    32    18    32    1
    33    18    33    1
    34    19    34    1
    35    19    35    1
    36    19    36    1
    37    20    23   ar
    38    22    24   ar
    39    22    37    1
    40    23    25   ar
    41    23    38    1
    42    24    25   ar
    43    24    39    1
    44    26    40    1
    45    26    41    1
    46    26    42    1
