@<TRIPOS>MOLECULE
IMPHY017851
 35 37 0 0 0
SMALL
GASTEIGER

@<TRIPOS>ATOM
      1 O           2.2173    1.4290    0.0000 O.2     1  UNL1       -0.2924
      2 C           2.9986   -0.0572    0.0000 C.3     1  UNL1       -0.0154
      3 C           5.8153    0.0280    0.0000 C.3     1  UNL1       -0.0208
      4 C           4.4164    0.0192    0.0000 C.3     1  UNL1        0.0311
      5 C           4.6752    0.9851    0.0000 C.3     1  UNL1       -0.0127
      6 C           5.3659   -0.8607    0.0000 C.3     1  UNL1       -0.0346
      7 C           3.5009   -0.9171    0.0000 C.3     1  UNL1       -0.0461
      8 C           4.4439   -1.2372    0.0000 C.3     1  UNL1       -0.0492
      9 C           2.0000   -0.1109    0.0000 C.3     1  UNL1       -0.0584
     10 C           3.1954    1.6369    0.0000 C.2     1  UNL1        0.1597
     11 C           4.5967    2.4459    0.0000 C.2     1  UNL1       -0.0768
     12 C           6.0440   -1.5957    0.0000 C.3     1  UNL1       -0.0436
     13 C           3.6022    2.5504    0.0000 C.2     1  UNL1       -0.0225
     14 C           5.7465   -2.5504    0.0000 C.3     1  UNL1       -0.0624
     15 C           7.0195   -1.3760    0.0000 C.3     1  UNL1       -0.0624
     16 H           6.6653    0.0334    0.0000 H       1  UNL1        0.0316
     17 H           4.1964   -0.8018    0.0000 H       1  UNL1        0.0389
     18 H           5.2299    1.2621    0.0000 H       1  UNL1        0.0351
     19 H           5.9800   -0.7751    0.0000 H       1  UNL1        0.0306
     20 H           2.8991   -1.0665    0.0000 H       1  UNL1        0.0271
     21 H           3.4749   -1.5365    0.0000 H       1  UNL1        0.0271
     22 H           4.0874   -1.7445    0.0000 H       1  UNL1        0.0268
     23 H           4.8304   -1.7220    0.0000 H       1  UNL1        0.0268
     24 H           1.9667    0.5082    0.0000 H       1  UNL1        0.0235
     25 H           1.3809   -0.1443    0.0000 H       1  UNL1        0.0235
     26 H           2.0333   -0.7300    0.0000 H       1  UNL1        0.0235
     27 H           5.0461    2.8730    0.0000 H       1  UNL1        0.0576
     28 H           5.4391   -1.7319    0.0000 H       1  UNL1        0.0298
     29 H           3.2922    3.0873    0.0000 H       1  UNL1        0.0649
     30 H           5.1545   -2.3660    0.0000 H       1  UNL1        0.0232
     31 H           5.5620   -3.1423    0.0000 H       1  UNL1        0.0232
     32 H           6.3384   -2.7349    0.0000 H       1  UNL1        0.0232
     33 H           7.1557   -1.9808    0.0000 H       1  UNL1        0.0232
     34 H           7.6244   -1.2397    0.0000 H       1  UNL1        0.0232
     35 H           6.8833   -0.7711    0.0000 H       1  UNL1        0.0232
@<TRIPOS>BOND
     1     1    10    2
     2     2     4    1
     3     2     5    1
     4     2     7    1
     5     2     9    1
     6     3     4    1
     7     3     5    1
     8     3     6    1
     9     3    16    1
    10     4    10    1
    11     4    17    1
    12     5    11    1
    13     5    18    1
    14     6     8    1
    15     6    12    1
    16     6    19    1
    17     7     8    1
    18     7    20    1
    19     7    21    1
    20     8    22    1
    21     8    23    1
    22     9    24    1
    23     9    25    1
    24     9    26    1
    25    10    13    1
    26    11    13    2
    27    11    27    1
    28    12    14    1
    29    12    15    1
    30    12    28    1
    31    13    29    1
    32    14    30    1
    33    14    31    1
    34    14    32    1
    35    15    33    1
    36    15    34    1
    37    15    35    1
