@<TRIPOS>MOLECULE
IMPHY010453
 38 39 0 0 0
SMALL
GASTEIGER

@<TRIPOS>ATOM
      1 O           4.2690   -0.1550    0.0000 O.3     1  UNL1       -0.3313
      2 O           6.0010   -0.1550    0.0000 O.3     1  UNL1       -0.4607
      3 O           4.2690   -3.1550    0.0000 O.3     1  UNL1       -0.3864
      4 O           2.5369   -2.1550    0.0000 O.3     1  UNL1       -0.3865
      5 O           6.0010   -2.1550    0.0000 O.3     1  UNL1       -0.3829
      6 O           2.5369    0.8450    0.0000 O.3     1  UNL1       -0.3924
      7 O           7.7331    2.8450    0.0000 O.3     1  UNL1       -0.5066
      8 C           4.2690   -2.1550    0.0000 C.3     1  UNL1        0.1152
      9 C           3.4030   -1.6550    0.0000 C.3     1  UNL1        0.1120
     10 C           5.1350   -1.6550    0.0000 C.3     1  UNL1        0.1454
     11 C           3.4030   -0.6550    0.0000 C.3     1  UNL1        0.1140
     12 C           5.1350   -0.6550    0.0000 C.3     1  UNL1        0.2308
     13 C           2.5369   -0.1550    0.0000 C.3     1  UNL1        0.0731
     14 C           6.0010    0.8450    0.0000 C.ar    1  UNL1        0.1277
     15 C           5.1350    1.3450    0.0000 C.ar    1  UNL1       -0.0167
     16 C           6.8671    1.3450    0.0000 C.ar    1  UNL1        0.0217
     17 C           5.1350    2.3450    0.0000 C.ar    1  UNL1       -0.0436
     18 C           6.8671    2.3450    0.0000 C.ar    1  UNL1        0.1206
     19 C           6.0010    2.8450    0.0000 C.ar    1  UNL1       -0.0170
     20 C           4.2690    2.8450    0.0000 C.3     1  UNL1       -0.0395
     21 H           4.8059   -2.4650    0.0000 H       1  UNL1        0.0648
     22 H           3.4030   -2.2750    0.0000 H       1  UNL1        0.0647
     23 H           5.6720   -1.3450    0.0000 H       1  UNL1        0.0683
     24 H           3.4030   -0.0350    0.0000 H       1  UNL1        0.0647
     25 H           5.1350   -0.0350    0.0000 H       1  UNL1        0.1084
     26 H           1.9264   -0.0473    0.0000 H       1  UNL1        0.0584
     27 H           2.3249   -0.7376    0.0000 H       1  UNL1        0.0584
     28 H           3.7320   -3.4650    0.0000 H       1  UNL1        0.2100
     29 H           2.0000   -1.8450    0.0000 H       1  UNL1        0.2100
     30 H           6.5380   -1.8450    0.0000 H       1  UNL1        0.2102
     31 H           2.0000    1.1550    0.0000 H       1  UNL1        0.2095
     32 H           4.5981    1.0350    0.0000 H       1  UNL1        0.0657
     33 H           7.4040    1.0350    0.0000 H       1  UNL1        0.0691
     34 H           6.0010    3.4650    0.0000 H       1  UNL1        0.0657
     35 H           4.5790    3.3819    0.0000 H       1  UNL1        0.0278
     36 H           3.7320    3.1550    0.0000 H       1  UNL1        0.0278
     37 H           3.9590    2.3081    0.0000 H       1  UNL1        0.0278
     38 H           7.7331    3.4650    0.0000 H       1  UNL1        0.2921
@<TRIPOS>BOND
     1     1    11    1
     2     1    12    1
     3    12     2    1
     4     2    14    1
     5     8     3    1
     6     3    28    1
     7     9     4    1
     8     4    29    1
     9    10     5    1
    10     5    30    1
    11     6    13    1
    12     6    31    1
    13     7    18    1
    14     7    38    1
    15     8     9    1
    16     8    10    1
    17     8    21    1
    18     9    11    1
    19     9    22    1
    20    10    12    1
    21    10    23    1
    22    11    13    1
    23    11    24    1
    24    12    25    1
    25    13    26    1
    26    13    27    1
    27    14    15   ar
    28    14    16   ar
    29    15    17   ar
    30    15    32    1
    31    16    18   ar
    32    16    33    1
    33    17    19   ar
    34    17    20    1
    35    18    19   ar
    36    19    34    1
    37    20    35    1
    38    20    36    1
    39    20    37    1
