@<TRIPOS>MOLECULE
IMPHY002589
 43 44 0 0 0
SMALL
GASTEIGER

@<TRIPOS>ATOM
      1 O           2.0000    1.2327    0.0000 O.3     1  UNL1       -0.3917
      2 N           4.5981   -0.2673    0.0000 N.3     1  UNL1       -0.2931
      3 C           4.5981    0.7327    0.0000 C.3     1  UNL1        0.0159
      4 C           3.7320   -0.7673    0.0000 C.3     1  UNL1        0.0156
      5 C           5.4920    1.2674    0.0000 C.3     1  UNL1       -0.0281
      6 C           5.4920   -0.8020    0.0000 C.3     1  UNL1        0.0082
      7 C           3.7320    1.2327    0.0000 C.3     1  UNL1       -0.0109
      8 C           2.8660   -0.2673    0.0000 C.3     1  UNL1       -0.0109
      9 C           6.3981    0.7535    0.0000 C.3     1  UNL1       -0.0476
     10 C           2.8660    0.7327    0.0000 C.3     1  UNL1        0.0581
     11 C           6.3981   -0.2881    0.0000 C.3     1  UNL1       -0.0373
     12 C           3.7320   -1.7673    0.0000 C.3     1  UNL1       -0.0310
     13 C           5.4804    2.2673    0.0000 C.3     1  UNL1       -0.0610
     14 C           5.4804   -1.8019    0.0000 C.3     1  UNL1       -0.0495
     15 C           2.8660   -2.2673    0.0000 C.3     1  UNL1       -0.0612
     16 C           4.5981   -2.2673    0.0000 C.3     1  UNL1       -0.0612
     17 H           4.5915    1.5827    0.0000 H       1  UNL1        0.0466
     18 H           4.2690   -1.0773    0.0000 H       1  UNL1        0.0466
     19 H           4.9510    1.5701    0.0000 H       1  UNL1        0.0313
     20 H           4.9510   -1.1047    0.0000 H       1  UNL1        0.0460
     21 H           4.1306    1.7076    0.0000 H       1  UNL1        0.0305
     22 H           3.3335    1.7076    0.0000 H       1  UNL1        0.0305
     23 H           2.2554   -0.1596    0.0000 H       1  UNL1        0.0305
     24 H           2.6540   -0.8499    0.0000 H       1  UNL1        0.0305
     25 H           7.0089    0.6474    0.0000 H       1  UNL1        0.0269
     26 H           6.6071    1.3372    0.0000 H       1  UNL1        0.0269
     27 H           2.8660    1.3527    0.0000 H       1  UNL1        0.0594
     28 H           6.6071   -0.8718    0.0000 H       1  UNL1        0.0280
     29 H           7.0089   -0.1820    0.0000 H       1  UNL1        0.0280
     30 H           3.7320   -2.3873    0.0000 H       1  UNL1        0.0311
     31 H           6.1004    2.2745    0.0000 H       1  UNL1        0.0233
     32 H           5.4733    2.8873    0.0000 H       1  UNL1        0.0233
     33 H           4.8605    2.2601    0.0000 H       1  UNL1        0.0233
     34 H           4.8605   -1.7947    0.0000 H       1  UNL1        0.0245
     35 H           5.4733   -2.4218    0.0000 H       1  UNL1        0.0245
     36 H           6.1004   -1.8091    0.0000 H       1  UNL1        0.0245
     37 H           2.5560   -1.7304    0.0000 H       1  UNL1        0.0233
     38 H           2.3291   -2.5773    0.0000 H       1  UNL1        0.0233
     39 H           3.1760   -2.8042    0.0000 H       1  UNL1        0.0233
     40 H           4.2881   -2.8042    0.0000 H       1  UNL1        0.0233
     41 H           5.1350   -2.5773    0.0000 H       1  UNL1        0.0233
     42 H           4.9081   -1.7304    0.0000 H       1  UNL1        0.0233
     43 H           2.0000    1.8527    0.0000 H       1  UNL1        0.2098
@<TRIPOS>BOND
     1    10     1    1
     2     1    43    1
     3     2     3    1
     4     2     4    1
     5     2     6    1
     6     3     5    1
     7     3     7    1
     8     3    17    1
     9     4     8    1
    10     4    12    1
    11     4    18    1
    12     5     9    1
    13     5    13    1
    14     5    19    1
    15     6    11    1
    16     6    14    1
    17     6    20    1
    18     7    10    1
    19     7    21    1
    20     7    22    1
    21     8    10    1
    22     8    23    1
    23     8    24    1
    24     9    11    1
    25     9    25    1
    26     9    26    1
    27    10    27    1
    28    11    28    1
    29    11    29    1
    30    12    15    1
    31    12    16    1
    32    12    30    1
    33    13    31    1
    34    13    32    1
    35    13    33    1
    36    14    34    1
    37    14    35    1
    38    14    36    1
    39    15    37    1
    40    15    38    1
    41    15    39    1
    42    16    40    1
    43    16    41    1
    44    16    42    1
