@<TRIPOS>MOLECULE
IMPHY012647
 46 46 0 0 0
SMALL
GASTEIGER

@<TRIPOS>ATOM
      1 SI          3.0000    1.6651    0.0000 Si      1  UNL1        0.0000
      2 O           4.0000    1.6651    0.0000 O.3     1  UNL1        0.0000
      3 C           3.0000    2.6651    0.0000 C.3     1  UNL1        0.0000
      4 C           2.0000    1.6651    0.0000 C.3     1  UNL1        0.0000
      5 C           2.0000    2.6651    0.0000 C.3     1  UNL1        0.0000
      6 C           3.0000    0.6651    0.0000 C.3     1  UNL1        0.0000
      7 C           4.5000    0.7990    0.0000 C.3     1  UNL1        0.0000
      8 C           5.5000    0.7990    0.0000 C.3     1  UNL1        0.0000
      9 C           6.0000   -0.0670    0.0000 C.3     1  UNL1        0.0000
     10 C           7.0000   -0.0670    0.0000 C.3     1  UNL1        0.0000
     11 C           7.5000   -0.9330    0.0000 C.3     1  UNL1        0.0000
     12 C           8.5000   -0.9330    0.0000 C.3     1  UNL1        0.0000
     13 C           9.0000   -1.7990    0.0000 C.3     1  UNL1        0.0000
     14 C          10.0000   -1.7990    0.0000 C.3     1  UNL1        0.0000
     15 C          10.5000   -2.6651    0.0000 C.3     1  UNL1        0.0000
     16 C          11.5000   -2.6651    0.0000 C.3     1  UNL1        0.0000
     17 H           3.6200    2.6651    0.0000 H       1  UNL1        0.0000
     18 H           3.0000    3.2851    0.0000 H       1  UNL1        0.0000
     19 H           1.3800    1.6651    0.0000 H       1  UNL1        0.0000
     20 H           2.0000    1.0451    0.0000 H       1  UNL1        0.0000
     21 H           2.0000    3.2851    0.0000 H       1  UNL1        0.0000
     22 H           1.3800    2.6651    0.0000 H       1  UNL1        0.0000
     23 H           2.3800    0.6651    0.0000 H       1  UNL1        0.0000
     24 H           3.0000    0.0451    0.0000 H       1  UNL1        0.0000
     25 H           3.6200    0.6651    0.0000 H       1  UNL1        0.0000
     26 H           3.9174    0.5870    0.0000 H       1  UNL1        0.0000
     27 H           4.6077    0.1885    0.0000 H       1  UNL1        0.0000
     28 H           6.0826    1.0111    0.0000 H       1  UNL1        0.0000
     29 H           5.3923    1.4096    0.0000 H       1  UNL1        0.0000
     30 H           5.4174   -0.2790    0.0000 H       1  UNL1        0.0000
     31 H           6.1077   -0.6776    0.0000 H       1  UNL1        0.0000
     32 H           7.5826    0.1451    0.0000 H       1  UNL1        0.0000
     33 H           6.8923    0.5436    0.0000 H       1  UNL1        0.0000
     34 H           6.9174   -1.1451    0.0000 H       1  UNL1        0.0000
     35 H           7.6077   -1.5436    0.0000 H       1  UNL1        0.0000
     36 H           9.0826   -0.7210    0.0000 H       1  UNL1        0.0000
     37 H           8.3923   -0.3224    0.0000 H       1  UNL1        0.0000
     38 H           8.4174   -2.0111    0.0000 H       1  UNL1        0.0000
     39 H           9.1077   -2.4096    0.0000 H       1  UNL1        0.0000
     40 H          10.5826   -1.5870    0.0000 H       1  UNL1        0.0000
     41 H           9.8923   -1.1885    0.0000 H       1  UNL1        0.0000
     42 H           9.9174   -2.8771    0.0000 H       1  UNL1        0.0000
     43 H          10.6077   -3.2756    0.0000 H       1  UNL1        0.0000
     44 H          11.5000   -3.2851    0.0000 H       1  UNL1        0.0000
     45 H          12.1200   -2.6651    0.0000 H       1  UNL1        0.0000
     46 H          11.5000   -2.0451    0.0000 H       1  UNL1        0.0000
@<TRIPOS>BOND
     1     1     2    1
     2     1     3    1
     3     1     4    1
     4     1     6    1
     5     2     7    1
     6     3     5    1
     7     3    17    1
     8     3    18    1
     9     4     5    1
    10     4    19    1
    11     4    20    1
    12     5    21    1
    13     5    22    1
    14     6    23    1
    15     6    24    1
    16     6    25    1
    17     7     8    1
    18     7    26    1
    19     7    27    1
    20     8     9    1
    21     8    28    1
    22     8    29    1
    23     9    10    1
    24     9    30    1
    25     9    31    1
    26    10    11    1
    27    10    32    1
    28    10    33    1
    29    11    12    1
    30    11    34    1
    31    11    35    1
    32    12    13    1
    33    12    36    1
    34    12    37    1
    35    13    14    1
    36    13    38    1
    37    13    39    1
    38    14    15    1
    39    14    40    1
    40    14    41    1
    41    15    16    1
    42    15    42    1
    43    15    43    1
    44    16    44    1
    45    16    45    1
    46    16    46    1
