@<TRIPOS>MOLECULE
IMPHY001327
 104 106 0 0 0
SMALL
GASTEIGER

@<TRIPOS>ATOM
      1 O          15.4469    0.3804    0.0000 O.3     1  UNL1       -0.3683
      2 O          17.5160   -0.2919    0.0000 O.3     1  UNL1       -0.3683
      3 O          13.4789   -0.3190    0.0000 O.3     1  UNL1       -0.3892
      4 O          18.6970   -2.0145    0.0000 O.3     1  UNL1       -0.3892
      5 O           6.3748    3.7469    0.0000 O.3     1  UNL1       -0.3915
      6 O           3.6636    4.5301    0.0000 O.3     1  UNL1       -0.4542
      7 O           5.4432    4.6234    0.0000 O.2     1  UNL1       -0.2453
      8 C          16.2559    0.9682    0.0000 C.3     1  UNL1        0.0853
      9 C          17.2070    0.6591    0.0000 C.3     1  UNL1        0.0853
     10 C          15.9469    1.9192    0.0000 C.3     1  UNL1       -0.0217
     11 C          18.0160    1.2469    0.0000 C.3     1  UNL1       -0.0217
     12 C          14.6379    0.9682    0.0000 C.3     1  UNL1        0.0850
     13 C          18.5160   -0.2919    0.0000 C.3     1  UNL1        0.0850
     14 C          14.9469    1.9192    0.0000 C.3     1  UNL1       -0.0217
     15 C          18.8250    0.6591    0.0000 C.3     1  UNL1       -0.0217
     16 C          13.6868    0.6591    0.0000 C.3     1  UNL1        0.0813
     17 C          19.1038   -1.1009    0.0000 C.3     1  UNL1        0.0813
     18 C          12.9437    1.3283    0.0000 C.3     1  UNL1       -0.0244
     19 C          20.0983   -0.9964    0.0000 C.3     1  UNL1       -0.0244
     20 C          11.9926    1.0193    0.0000 C.3     1  UNL1       -0.0506
     21 C          20.6861   -1.8054    0.0000 C.3     1  UNL1       -0.0506
     22 C          11.2495    1.6884    0.0000 C.3     1  UNL1       -0.0530
     23 C          21.6806   -1.7009    0.0000 C.3     1  UNL1       -0.0530
     24 C          10.2984    1.3794    0.0000 C.3     1  UNL1       -0.0531
     25 C          22.2684   -2.5099    0.0000 C.3     1  UNL1       -0.0531
     26 C           9.5553    2.0485    0.0000 C.3     1  UNL1       -0.0531
     27 C          23.2629   -2.4054    0.0000 C.3     1  UNL1       -0.0531
     28 C           8.6042    1.7395    0.0000 C.3     1  UNL1       -0.0530
     29 C          23.8507   -3.2144    0.0000 C.3     1  UNL1       -0.0531
     30 C           7.8611    2.4086    0.0000 C.3     1  UNL1       -0.0507
     31 C          24.8452   -3.1099    0.0000 C.3     1  UNL1       -0.0531
     32 C           6.9100    2.0996    0.0000 C.3     1  UNL1       -0.0265
     33 C           6.1669    2.7687    0.0000 C.3     1  UNL1        0.0594
     34 C          25.4330   -3.9189    0.0000 C.3     1  UNL1       -0.0533
     35 C           5.2158    2.4597    0.0000 C.3     1  UNL1        0.0050
     36 C          26.4275   -3.8144    0.0000 C.3     1  UNL1       -0.0559
     37 C           4.4727    3.1288    0.0000 C.2     1  UNL1        0.0385
     38 C          27.0153   -4.6234    0.0000 C.3     1  UNL1       -0.0653
     39 C           3.4945    2.9209    0.0000 C.2     1  UNL1       -0.0342
     40 C           2.9945    3.7870    0.0000 C.3     1  UNL1        0.1195
     41 C           4.5772    4.1234    0.0000 C.2     1  UNL1        0.3356
     42 C           2.0000    3.8915    0.0000 C.3     1  UNL1       -0.0240
     43 H          16.3889    0.1286    0.0000 H       1  UNL1        0.0622
     44 H          17.0740    1.4987    0.0000 H       1  UNL1        0.0622
     45 H          16.5533    2.0481    0.0000 H       1  UNL1        0.0292
     46 H          15.8821    2.5358    0.0000 H       1  UNL1        0.0292
     47 H          18.4308    1.7077    0.0000 H       1  UNL1        0.0292
     48 H          17.6011    1.7077    0.0000 H       1  UNL1        0.0292
     49 H          14.5049    0.1286    0.0000 H       1  UNL1        0.0622
     50 H          18.1301   -1.0493    0.0000 H       1  UNL1        0.0622
     51 H          15.0117    2.5358    0.0000 H       1  UNL1        0.0292
     52 H          14.3404    2.0481    0.0000 H       1  UNL1        0.0292
     53 H          19.3914    0.4070    0.0000 H       1  UNL1        0.0292
     54 H          19.1350    1.1961    0.0000 H       1  UNL1        0.0292
     55 H          13.0972    0.4676    0.0000 H       1  UNL1        0.0619
     56 H          19.4682   -1.6025    0.0000 H       1  UNL1        0.0619
     57 H          13.4322    1.7100    0.0000 H       1  UNL1        0.0291
     58 H          12.6526    1.8757    0.0000 H       1  UNL1        0.0291
     59 H          20.6555   -0.7246    0.0000 H       1  UNL1        0.0291
     60 H          19.9274   -0.4004    0.0000 H       1  UNL1        0.0291
     61 H          11.5041    0.6376    0.0000 H       1  UNL1        0.0266
     62 H          12.2837    0.4718    0.0000 H       1  UNL1        0.0266
     63 H          20.1288   -2.0772    0.0000 H       1  UNL1        0.0266
     64 H          20.8570   -2.4014    0.0000 H       1  UNL1        0.0266
     65 H          12.8893   -0.5106    0.0000 H       1  UNL1        0.2099
     66 H          19.0615   -2.5161    0.0000 H       1  UNL1        0.2099
     67 H          11.7380    2.0701    0.0000 H       1  UNL1        0.0265
     68 H          10.9584    2.2358    0.0000 H       1  UNL1        0.0265
     69 H          22.2379   -1.4291    0.0000 H       1  UNL1        0.0265
     70 H          21.5097   -1.1049    0.0000 H       1  UNL1        0.0265
     71 H           9.8099    0.9977    0.0000 H       1  UNL1        0.0265
     72 H          10.5895    0.8319    0.0000 H       1  UNL1        0.0265
     73 H          21.7111   -2.7817    0.0000 H       1  UNL1        0.0265
     74 H          22.4393   -3.1059    0.0000 H       1  UNL1        0.0265
     75 H          10.0438    2.4302    0.0000 H       1  UNL1        0.0265
     76 H           9.2642    2.5959    0.0000 H       1  UNL1        0.0265
     77 H          23.8202   -2.1336    0.0000 H       1  UNL1        0.0265
     78 H          23.0920   -1.8094    0.0000 H       1  UNL1        0.0265
     79 H           8.1156    1.3578    0.0000 H       1  UNL1        0.0265
     80 H           8.8953    1.1921    0.0000 H       1  UNL1        0.0265
     81 H          23.2934   -3.4862    0.0000 H       1  UNL1        0.0265
     82 H          24.0216   -3.8104    0.0000 H       1  UNL1        0.0265
     83 H           8.3496    2.7903    0.0000 H       1  UNL1        0.0266
     84 H           7.5700    2.9560    0.0000 H       1  UNL1        0.0266
     85 H          25.4025   -2.8381    0.0000 H       1  UNL1        0.0265
     86 H          24.6743   -2.5139    0.0000 H       1  UNL1        0.0265
     87 H           6.4214    1.7179    0.0000 H       1  UNL1        0.0290
     88 H           7.2011    1.5522    0.0000 H       1  UNL1        0.0290
     89 H           6.7565    2.9603    0.0000 H       1  UNL1        0.0596
     90 H          24.8757   -4.1907    0.0000 H       1  UNL1        0.0265
     91 H          25.6039   -4.5149    0.0000 H       1  UNL1        0.0265
     92 H           4.7272    2.0780    0.0000 H       1  UNL1        0.0340
     93 H           5.5069    1.9123    0.0000 H       1  UNL1        0.0340
     94 H          26.9848   -3.5426    0.0000 H       1  UNL1        0.0263
     95 H          26.2566   -3.2184    0.0000 H       1  UNL1        0.0263
     96 H           6.9644    3.9385    0.0000 H       1  UNL1        0.2098
     97 H          26.5137   -4.9878    0.0000 H       1  UNL1        0.0230
     98 H          27.3797   -5.1250    0.0000 H       1  UNL1        0.0230
     99 H          27.5169   -4.2589    0.0000 H       1  UNL1        0.0230
    100 H           3.2424    2.3545    0.0000 H       1  UNL1        0.0613
    101 H           2.7723    4.3658    0.0000 H       1  UNL1        0.0777
    102 H           2.0648    4.5081    0.0000 H       1  UNL1        0.0268
    103 H           1.3834    3.9563    0.0000 H       1  UNL1        0.0268
    104 H           1.9352    3.2749    0.0000 H       1  UNL1        0.0268
@<TRIPOS>BOND
     1     1     8    1
     2     1    12    1
     3     2     9    1
     4     2    13    1
     5    16     3    1
     6     3    65    1
     7    17     4    1
     8     4    66    1
     9    33     5    1
    10     5    96    1
    11     6    40    1
    12     6    41    1
    13     7    41    2
    14     8     9    1
    15     8    10    1
    16     8    43    1
    17     9    11    1
    18     9    44    1
    19    10    14    1
    20    10    45    1
    21    10    46    1
    22    11    15    1
    23    11    47    1
    24    11    48    1
    25    12    14    1
    26    12    16    1
    27    12    49    1
    28    13    15    1
    29    13    17    1
    30    13    50    1
    31    14    51    1
    32    14    52    1
    33    15    53    1
    34    15    54    1
    35    16    18    1
    36    16    55    1
    37    17    19    1
    38    17    56    1
    39    18    20    1
    40    18    57    1
    41    18    58    1
    42    19    21    1
    43    19    59    1
    44    19    60    1
    45    20    22    1
    46    20    61    1
    47    20    62    1
    48    21    23    1
    49    21    63    1
    50    21    64    1
    51    22    24    1
    52    22    67    1
    53    22    68    1
    54    23    25    1
    55    23    69    1
    56    23    70    1
    57    24    26    1
    58    24    71    1
    59    24    72    1
    60    25    27    1
    61    25    73    1
    62    25    74    1
    63    26    28    1
    64    26    75    1
    65    26    76    1
    66    27    29    1
    67    27    77    1
    68    27    78    1
    69    28    30    1
    70    28    79    1
    71    28    80    1
    72    29    31    1
    73    29    81    1
    74    29    82    1
    75    30    32    1
    76    30    83    1
    77    30    84    1
    78    31    34    1
    79    31    85    1
    80    31    86    1
    81    32    33    1
    82    32    87    1
    83    32    88    1
    84    33    35    1
    85    33    89    1
    86    34    36    1
    87    34    90    1
    88    34    91    1
    89    35    37    1
    90    35    92    1
    91    35    93    1
    92    36    38    1
    93    36    94    1
    94    36    95    1
    95    37    39    2
    96    37    41    1
    97    38    97    1
    98    38    98    1
    99    38    99    1
   100    39    40    1
   101    39   100    1
   102    40    42    1
   103    40   101    1
   104    42   102    1
   105    42   103    1
   106    42   104    1
