@<TRIPOS>MOLECULE
IMPHY004530
 29 29 0 0 0
SMALL
GASTEIGER

@<TRIPOS>ATOM
      1 O           4.3660   -0.8170    0.0000 O.3     1  UNL1       -0.3638
      2 C           5.2320   -0.3170    0.0000 C.3     1  UNL1        0.0651
      3 C           3.5000   -0.3170    0.0000 C.3     1  UNL1        0.0852
      4 C           5.2320    0.6830    0.0000 C.3     1  UNL1       -0.0241
      5 C           3.5000    0.6830    0.0000 C.3     1  UNL1       -0.0203
      6 C           4.3660    1.1830    0.0000 C.3     1  UNL1       -0.0476
      7 C           6.2320   -0.3170    0.0000 C.3     1  UNL1       -0.0360
      8 C           5.7320   -1.1830    0.0000 C.3     1  UNL1       -0.0360
      9 C           3.0000   -1.1830    0.0000 C.3     1  UNL1       -0.0322
     10 C           2.5000   -0.3170    0.0000 C.2     1  UNL1       -0.0599
     11 C           2.0000    0.5490    0.0000 C.2     1  UNL1       -0.1000
     12 H           5.8426    0.5754    0.0000 H       1  UNL1        0.0293
     13 H           5.4441    1.2656    0.0000 H       1  UNL1        0.0293
     14 H           3.2880    1.2656    0.0000 H       1  UNL1        0.0296
     15 H           2.8894    0.5754    0.0000 H       1  UNL1        0.0296
     16 H           4.7646    1.6580    0.0000 H       1  UNL1        0.0267
     17 H           3.9675    1.6580    0.0000 H       1  UNL1        0.0267
     18 H           6.2320   -0.9370    0.0000 H       1  UNL1        0.0257
     19 H           6.8520   -0.3170    0.0000 H       1  UNL1        0.0257
     20 H           6.2320    0.3030    0.0000 H       1  UNL1        0.0257
     21 H           5.1951   -1.4930    0.0000 H       1  UNL1        0.0257
     22 H           6.0420   -1.7200    0.0000 H       1  UNL1        0.0257
     23 H           6.2690   -0.8730    0.0000 H       1  UNL1        0.0257
     24 H           2.4631   -0.8730    0.0000 H       1  UNL1        0.0260
     25 H           2.6900   -1.7200    0.0000 H       1  UNL1        0.0260
     26 H           3.5369   -1.4930    0.0000 H       1  UNL1        0.0260
     27 H           2.1900   -0.8539    0.0000 H       1  UNL1        0.0594
     28 H           2.3100    1.0860    0.0000 H       1  UNL1        0.0533
     29 H           1.3800    0.5490    0.0000 H       1  UNL1        0.0533
@<TRIPOS>BOND
     1     1     2    1
     2     1     3    1
     3     2     4    1
     4     2     7    1
     5     2     8    1
     6     3     5    1
     7     3     9    1
     8     3    10    1
     9     4     6    1
    10     4    12    1
    11     4    13    1
    12     5     6    1
    13     5    14    1
    14     5    15    1
    15     6    16    1
    16     6    17    1
    17     7    18    1
    18     7    19    1
    19     7    20    1
    20     8    21    1
    21     8    22    1
    22     8    23    1
    23     9    24    1
    24     9    25    1
    25     9    26    1
    26    10    11    2
    27    10    27    1
    28    11    28    1
    29    11    29    1
