@<TRIPOS>MOLECULE
IMPHY012202
 26 27 0 0 0
SMALL
GASTEIGER

@<TRIPOS>ATOM
      1 O           6.3306    0.2500    0.0000 O.3     1  UNL1       -0.3567
      2 O           4.5981   -1.7500    0.0000 O.2     1  UNL1       -0.2895
      3 C           5.4641    0.7500    0.0000 C.3     1  UNL1        0.1013
      4 C           5.4641   -0.2500    0.0000 C.3     1  UNL1        0.1499
      5 C           4.5981    1.2500    0.0000 C.3     1  UNL1       -0.0170
      6 C           3.7320    0.7500    0.0000 C.3     1  UNL1       -0.0217
      7 C           4.5981   -0.7500    0.0000 C.2     1  UNL1        0.1905
      8 C           5.4641    1.7500    0.0000 C.3     1  UNL1       -0.0329
      9 C           3.7320   -0.2500    0.0000 C.2     1  UNL1       -0.0034
     10 C           2.8660   -0.7500    0.0000 C.2     1  UNL1       -0.0691
     11 C           2.0000   -0.2500    0.0000 C.3     1  UNL1       -0.0434
     12 C           2.8660   -1.7500    0.0000 C.3     1  UNL1       -0.0434
     13 H           5.7740   -0.7870    0.0000 H       1  UNL1        0.0709
     14 H           4.9966    1.7250    0.0000 H       1  UNL1        0.0297
     15 H           4.1996    1.7250    0.0000 H       1  UNL1        0.0297
     16 H           3.5200    1.3326    0.0000 H       1  UNL1        0.0315
     17 H           3.1215    0.6423    0.0000 H       1  UNL1        0.0315
     18 H           6.0841    1.7500    0.0000 H       1  UNL1        0.0258
     19 H           5.4641    2.3700    0.0000 H       1  UNL1        0.0258
     20 H           4.8441    1.7500    0.0000 H       1  UNL1        0.0258
     21 H           2.3100    0.2869    0.0000 H       1  UNL1        0.0274
     22 H           1.4631    0.0600    0.0000 H       1  UNL1        0.0274
     23 H           1.6900   -0.7869    0.0000 H       1  UNL1        0.0274
     24 H           2.2460   -1.7500    0.0000 H       1  UNL1        0.0274
     25 H           2.8660   -2.3700    0.0000 H       1  UNL1        0.0274
     26 H           3.4860   -1.7500    0.0000 H       1  UNL1        0.0274
@<TRIPOS>BOND
     1     1     3    1
     2     1     4    1
     3     2     7    2
     4     3     4    1
     5     3     5    1
     6     3     8    1
     7     4     7    1
     8     4    13    1
     9     5     6    1
    10     5    14    1
    11     5    15    1
    12     6     9    1
    13     6    16    1
    14     6    17    1
    15     7     9    1
    16     8    18    1
    17     8    19    1
    18     8    20    1
    19     9    10    2
    20    10    11    1
    21    10    12    1
    22    11    21    1
    23    11    22    1
    24    11    23    1
    25    12    24    1
    26    12    25    1
    27    12    26    1
