@<TRIPOS>MOLECULE
IMPHY016892
 41 42 0 0 0
SMALL
GASTEIGER

@<TRIPOS>ATOM
      1 O           6.4453   -3.2389    0.0000 O.3     1  UNL1       -0.3907
      2 O           8.1679   -3.0578    0.0000 O.3     1  UNL1       -0.3907
      3 C           3.7147    1.6548    0.0000 C.3     1  UNL1       -0.0314
      4 C           5.1137    1.1460    0.0000 C.3     1  UNL1       -0.0079
      5 C           3.9735    2.6207    0.0000 C.3     1  UNL1       -0.0193
      6 C           3.2369    3.6033    0.0000 C.3     1  UNL1       -0.0429
      7 C           2.3420    1.0627    0.0000 C.3     1  UNL1       -0.0489
      8 C           5.3725    2.1119    0.0000 C.2     1  UNL1       -0.0673
      9 C           2.0000    2.0024    0.0000 C.3     1  UNL1       -0.0462
     10 C           6.0272    0.7392    0.0000 C.3     1  UNL1       -0.0402
     11 C           5.0091    0.1514    0.0000 C.3     1  UNL1       -0.0556
     12 C           6.2385    2.6119    0.0000 C.2     1  UNL1       -0.0987
     13 C           6.1317   -0.2553    0.0000 C.3     1  UNL1       -0.0336
     14 C           7.0453   -0.6620    0.0000 C.2     1  UNL1       -0.0804
     15 C           7.1498   -1.6566    0.0000 C.2     1  UNL1       -0.0233
     16 C           6.3408   -2.2444    0.0000 C.3     1  UNL1        0.0674
     17 C           8.0634   -2.0633    0.0000 C.3     1  UNL1        0.0674
     18 H           3.4947    0.8337    0.0000 H       1  UNL1        0.0309
     19 H           4.1935    3.4417    0.0000 H       1  UNL1        0.0346
     20 H           3.5547    4.1357    0.0000 H       1  UNL1        0.0274
     21 H           2.6238    3.6953    0.0000 H       1  UNL1        0.0274
     22 H           1.7636    0.8394    0.0000 H       1  UNL1        0.0268
     23 H           2.5765    0.4888    0.0000 H       1  UNL1        0.0268
     24 H           1.8057    2.5912    0.0000 H       1  UNL1        0.0271
     25 H           1.4142    1.7992    0.0000 H       1  UNL1        0.0271
     26 H           6.6457    0.6960    0.0000 H       1  UNL1        0.0277
     27 H           6.1772    1.3408    0.0000 H       1  UNL1        0.0277
     28 H           4.3925    0.2162    0.0000 H       1  UNL1        0.0238
     29 H           4.9443   -0.4652    0.0000 H       1  UNL1        0.0238
     30 H           5.6257    0.0866    0.0000 H       1  UNL1        0.0238
     31 H           6.7754    2.3019    0.0000 H       1  UNL1        0.0535
     32 H           6.2385    3.2319    0.0000 H       1  UNL1        0.0535
     33 H           5.5132   -0.2121    0.0000 H       1  UNL1        0.0308
     34 H           5.9818   -0.8569    0.0000 H       1  UNL1        0.0308
     35 H           7.5469   -0.2976    0.0000 H       1  UNL1        0.0573
     36 H           6.0690   -1.6871    0.0000 H       1  UNL1        0.0605
     37 H           5.7448   -2.4152    0.0000 H       1  UNL1        0.0605
     38 H           8.6819   -2.1066    0.0000 H       1  UNL1        0.0605
     39 H           8.2134   -1.4617    0.0000 H       1  UNL1        0.0605
     40 H           5.9437   -3.6033    0.0000 H       1  UNL1        0.2098
     41 H           8.7343   -3.3100    0.0000 H       1  UNL1        0.2098
@<TRIPOS>BOND
     1     1    16    1
     2     1    40    1
     3     2    17    1
     4     2    41    1
     5     3     4    1
     6     3     6    1
     7     3     7    1
     8     3    18    1
     9     4     8    1
    10     4    10    1
    11     4    11    1
    12     5     6    1
    13     5     8    1
    14     5     9    1
    15     5    19    1
    16     6    20    1
    17     6    21    1
    18     7     9    1
    19     7    22    1
    20     7    23    1
    21     8    12    2
    22     9    24    1
    23     9    25    1
    24    10    13    1
    25    10    26    1
    26    10    27    1
    27    11    28    1
    28    11    29    1
    29    11    30    1
    30    12    31    1
    31    12    32    1
    32    13    14    1
    33    13    33    1
    34    13    34    1
    35    14    15    2
    36    14    35    1
    37    15    16    1
    38    15    17    1
    39    16    36    1
    40    16    37    1
    41    17    38    1
    42    17    39    1
