@<TRIPOS>MOLECULE
IMPHY010888
 72 75 0 0 0
SMALL
GASTEIGER

@<TRIPOS>ATOM
      1 O           7.9288   -2.2009    0.0000 O.3     1  UNL1       -0.3876
      2 O           7.0628    1.2991    0.0000 O.3     1  UNL1       -0.3875
      3 O           5.3307    0.2991    0.0000 O.3     1  UNL1       -0.4553
      4 O          10.1642    1.2606    0.0000 O.3     1  UNL1       -0.3918
      5 O           2.5357   -3.2532    0.0000 O.3     1  UNL1       -0.3915
      6 O           6.1968    1.7991    0.0000 O.2     1  UNL1       -0.2456
      7 C           7.9288   -0.2009    0.0000 C.3     1  UNL1        0.0315
      8 C           7.9288   -1.2009    0.0000 C.3     1  UNL1        0.0777
      9 C           7.0628   -1.7009    0.0000 C.3     1  UNL1       -0.0010
     10 C           6.1968   -1.2009    0.0000 C.3     1  UNL1        0.0134
     11 C           8.8750    0.1038    0.0000 C.3     1  UNL1       -0.0046
     12 C           7.0628    0.2991    0.0000 C.3     1  UNL1        0.1007
     13 C           6.1968   -0.2009    0.0000 C.3     1  UNL1        0.1336
     14 C           5.2868   -1.7078    0.0000 C.3     1  UNL1       -0.0043
     15 C           8.8750   -1.5056    0.0000 C.3     1  UNL1       -0.0228
     16 C           9.4586   -0.7009    0.0000 C.3     1  UNL1       -0.0446
     17 C           7.0789   -2.7424    0.0000 C.3     1  UNL1       -0.0286
     18 C           7.9288    0.7991    0.0000 C.3     1  UNL1       -0.0541
     19 C           5.2787   -2.7494    0.0000 C.2     1  UNL1       -0.0647
     20 C           4.3599   -1.1437    0.0000 C.3     1  UNL1       -0.0412
     21 C           9.1857    1.0543    0.0000 C.3     1  UNL1        0.0559
     22 C           6.1808   -3.2702    0.0000 C.2     1  UNL1       -0.0838
     23 C           5.2945   -0.7078    0.0000 C.3     1  UNL1       -0.0555
     24 C           4.3433   -3.2991    0.0000 C.3     1  UNL1       -0.0051
     25 C           3.4120   -1.6716    0.0000 C.3     1  UNL1       -0.0258
     26 C           3.4037   -2.7566    0.0000 C.3     1  UNL1        0.0590
     27 C           8.5179    1.7986    0.0000 C.3     1  UNL1       -0.0387
     28 C           5.3307    1.2991    0.0000 C.2     1  UNL1        0.3322
     29 C           4.4647    1.7991    0.0000 C.2     1  UNL1        0.0212
     30 C           4.4647    2.7991    0.0000 C.2     1  UNL1       -0.0690
     31 C           3.5987    3.2991    0.0000 C.3     1  UNL1       -0.0435
     32 C           5.3307    3.2991    0.0000 C.3     1  UNL1       -0.0435
     33 H           7.8022   -2.1202    0.0000 H       1  UNL1        0.0336
     34 H           6.9329   -0.7759    0.0000 H       1  UNL1        0.0349
     35 H           9.7148    0.2357    0.0000 H       1  UNL1        0.0333
     36 H           6.5259    0.6091    0.0000 H       1  UNL1        0.0637
     37 H           6.1968    0.4191    0.0000 H       1  UNL1        0.0763
     38 H           8.6240   -2.0726    0.0000 H       1  UNL1        0.0293
     39 H           9.4124   -1.8149    0.0000 H       1  UNL1        0.0293
     40 H           9.9195   -1.1156    0.0000 H       1  UNL1        0.0270
     41 H           9.9195   -0.2862    0.0000 H       1  UNL1        0.0270
     42 H           7.2969   -3.3228    0.0000 H       1  UNL1        0.0311
     43 H           7.6880   -2.6269    0.0000 H       1  UNL1        0.0311
     44 H           8.5488    0.7991    0.0000 H       1  UNL1        0.0237
     45 H           7.9288    1.4191    0.0000 H       1  UNL1        0.0237
     46 H           7.3088    0.7991    0.0000 H       1  UNL1        0.0237
     47 H           4.7681   -0.6770    0.0000 H       1  UNL1        0.0274
     48 H           3.9700   -0.6616    0.0000 H       1  UNL1        0.0274
     49 H           9.3783    1.6437    0.0000 H       1  UNL1        0.0593
     50 H           6.1832   -3.8902    0.0000 H       1  UNL1        0.0572
     51 H           8.4658   -2.5109    0.0000 H       1  UNL1        0.2102
     52 H           5.9145   -0.7126    0.0000 H       1  UNL1        0.0238
     53 H           5.2993   -0.0878    0.0000 H       1  UNL1        0.0238
     54 H           4.6745   -0.7030    0.0000 H       1  UNL1        0.0238
     55 H           3.9460   -3.7751    0.0000 H       1  UNL1        0.0335
     56 H           4.7443   -3.7720    0.0000 H       1  UNL1        0.0335
     57 H           3.2075   -1.0863    0.0000 H       1  UNL1        0.0290
     58 H           2.8004   -1.7730    0.0000 H       1  UNL1        0.0290
     59 H           7.5997    1.6091    0.0000 H       1  UNL1        0.2100
     60 H           2.8686   -2.4435    0.0000 H       1  UNL1        0.0596
     61 H           8.9793    2.2127    0.0000 H       1  UNL1        0.0255
     62 H           8.1038    2.2601    0.0000 H       1  UNL1        0.0255
     63 H           8.0564    1.3846    0.0000 H       1  UNL1        0.0255
     64 H          10.3568    1.8499    0.0000 H       1  UNL1        0.2098
     65 H           2.0000   -2.9412    0.0000 H       1  UNL1        0.2098
     66 H           3.9278    1.4891    0.0000 H       1  UNL1        0.0688
     67 H           3.9087    3.8360    0.0000 H       1  UNL1        0.0274
     68 H           5.6407    2.7622    0.0000 H       1  UNL1        0.0274
     69 H           5.8677    3.6091    0.0000 H       1  UNL1        0.0274
     70 H           5.0207    3.8360    0.0000 H       1  UNL1        0.0274
     71 H           3.0618    3.6091    0.0000 H       1  UNL1        0.0274
     72 H           3.2887    2.7622    0.0000 H       1  UNL1        0.0274
@<TRIPOS>BOND
     1     8     1    1
     2     1    51    1
     3    12     2    1
     4     2    59    1
     5    13     3    1
     6     3    28    1
     7    21     4    1
     8     4    64    1
     9    26     5    1
    10     5    65    1
    11     6    28    2
    12     7     8    1
    13     7    11    1
    14     7    12    1
    15     7    18    1
    16     8     9    1
    17     8    15    1
    18     9    10    1
    19     9    17    1
    20     9    33    1
    21    10    13    1
    22    10    14    1
    23    10    34    1
    24    11    16    1
    25    11    21    1
    26    11    35    1
    27    12    13    1
    28    12    36    1
    29    13    37    1
    30    14    19    1
    31    14    20    1
    32    14    23    1
    33    15    16    1
    34    15    38    1
    35    15    39    1
    36    16    40    1
    37    16    41    1
    38    17    22    1
    39    17    42    1
    40    17    43    1
    41    18    44    1
    42    18    45    1
    43    18    46    1
    44    19    22    2
    45    19    24    1
    46    20    25    1
    47    20    47    1
    48    20    48    1
    49    21    27    1
    50    21    49    1
    51    22    50    1
    52    23    52    1
    53    23    53    1
    54    23    54    1
    55    24    26    1
    56    24    55    1
    57    24    56    1
    58    25    26    1
    59    25    57    1
    60    25    58    1
    61    26    60    1
    62    27    61    1
    63    27    62    1
    64    27    63    1
    65    28    29    1
    66    29    30    2
    67    29    66    1
    68    30    31    1
    69    30    32    1
    70    31    67    1
    71    31    71    1
    72    31    72    1
    73    32    68    1
    74    32    69    1
    75    32    70    1
