@<TRIPOS>MOLECULE
IMPHY008560
 60 63 0 0 0
SMALL
GASTEIGER

@<TRIPOS>ATOM
      1 O           7.2304    1.2143    0.0000 O.3     1  UNL1       -0.4821
      2 O          10.7664    1.1864    0.0000 O.3     1  UNL1       -0.4811
      3 O           8.9904   -1.8204    0.0000 O.3     1  UNL1       -0.5055
      4 O           7.2419   -1.8550    0.0000 O.2     1  UNL1       -0.2917
      5 O           6.3320    2.7004    0.0000 O.3     1  UNL1       -0.5063
      6 O           2.8680    2.7138    0.0000 O.3     1  UNL1       -0.4950
      7 C          10.7744    2.2280    0.0000 C.3     1  UNL1        0.1235
      8 C           8.9904    1.1796    0.0000 C.ar    1  UNL1        0.0594
      9 C           8.1243    0.6796    0.0000 C.ar    1  UNL1        0.1460
     10 C           6.3243    0.7004    0.0000 C.3     1  UNL1        0.1355
     11 C           9.8564    0.6796    0.0000 C.ar    1  UNL1        0.1393
     12 C           8.1243   -0.3204    0.0000 C.ar    1  UNL1        0.1015
     13 C           6.3243   -0.3412    0.0000 C.3     1  UNL1        0.0521
     14 C           9.8564   -0.3204    0.0000 C.ar    1  UNL1        0.0409
     15 C           8.9904   -0.8204    0.0000 C.ar    1  UNL1        0.1378
     16 C           7.2304   -0.8551    0.0000 C.2     1  UNL1        0.1741
     17 C           9.8723    2.7489    0.0000 C.2     1  UNL1       -0.0408
     18 C           8.9743    2.2211    0.0000 C.2     1  UNL1       -0.0478
     19 C           5.4602    1.2038    0.0000 C.ar    1  UNL1        0.0347
     20 C          10.7224   -0.8204    0.0000 C.3     1  UNL1       -0.0023
     21 C          11.2777    3.0921    0.0000 C.3     1  UNL1       -0.0215
     22 C          11.7744    2.2242    0.0000 C.3     1  UNL1       -0.0215
     23 C           5.4641    2.2037    0.0000 C.ar    1  UNL1        0.1270
     24 C           4.5923    0.7071    0.0000 C.ar    1  UNL1       -0.0481
     25 C          10.7224   -1.8204    0.0000 C.2     1  UNL1       -0.0807
     26 C           4.6000    2.7071    0.0000 C.ar    1  UNL1        0.0219
     27 C           3.7282    1.2104    0.0000 C.ar    1  UNL1       -0.0193
     28 C          11.5884   -2.3204    0.0000 C.2     1  UNL1       -0.0793
     29 C           3.7320    2.2104    0.0000 C.ar    1  UNL1        0.1236
     30 C          11.5884   -3.3204    0.0000 C.3     1  UNL1       -0.0440
     31 C          12.4544   -1.8204    0.0000 C.3     1  UNL1       -0.0440
     32 C           2.0000    2.2171    0.0000 C.3     1  UNL1        0.0788
     33 H           6.3279    1.3204    0.0000 H       1  UNL1        0.0790
     34 H           5.7135   -0.2351    0.0000 H       1  UNL1        0.0385
     35 H           6.1153   -0.9249    0.0000 H       1  UNL1        0.0385
     36 H           9.8699    3.3689    0.0000 H       1  UNL1        0.0611
     37 H           8.4338    2.5249    0.0000 H       1  UNL1        0.0624
     38 H          11.3330   -0.9281    0.0000 H       1  UNL1        0.0358
     39 H          10.9345   -0.2378    0.0000 H       1  UNL1        0.0358
     40 H          11.8135    2.7801    0.0000 H       1  UNL1        0.0271
     41 H          11.5898    3.6279    0.0000 H       1  UNL1        0.0271
     42 H          10.7420    3.4042    0.0000 H       1  UNL1        0.0271
     43 H          11.7720    1.6042    0.0000 H       1  UNL1        0.0271
     44 H          12.3944    2.2218    0.0000 H       1  UNL1        0.0271
     45 H          11.7768    2.8442    0.0000 H       1  UNL1        0.0271
     46 H           4.5899    0.0871    0.0000 H       1  UNL1        0.0624
     47 H          10.1855   -2.1304    0.0000 H       1  UNL1        0.0575
     48 H           9.5273   -2.1304    0.0000 H       1  UNL1        0.2922
     49 H           4.6024    3.3271    0.0000 H       1  UNL1        0.0691
     50 H           3.1901    0.9025    0.0000 H       1  UNL1        0.0654
     51 H           6.3344    3.3204    0.0000 H       1  UNL1        0.2921
     52 H          10.9684   -3.3204    0.0000 H       1  UNL1        0.0274
     53 H          12.7644   -2.3573    0.0000 H       1  UNL1        0.0274
     54 H          12.9914   -1.5104    0.0000 H       1  UNL1        0.0274
     55 H          12.1444   -1.2835    0.0000 H       1  UNL1        0.0274
     56 H          11.5884   -3.9404    0.0000 H       1  UNL1        0.0274
     57 H          12.2084   -3.3204    0.0000 H       1  UNL1        0.0274
     58 H           1.6921    2.7552    0.0000 H       1  UNL1        0.0660
     59 H           1.4619    1.9092    0.0000 H       1  UNL1        0.0660
     60 H           2.3079    1.6790    0.0000 H       1  UNL1        0.0660
@<TRIPOS>BOND
     1     1     9    1
     2     1    10    1
     3     2     7    1
     4     2    11    1
     5     3    15    1
     6     3    48    1
     7     4    16    2
     8     5    23    1
     9     5    51    1
    10     6    29    1
    11     6    32    1
    12     7    17    1
    13     7    21    1
    14     7    22    1
    15     8     9   ar
    16     8    11   ar
    17     8    18    1
    18     9    12   ar
    19    10    13    1
    20    10    19    1
    21    10    33    1
    22    11    14   ar
    23    12    15   ar
    24    12    16    1
    25    13    16    1
    26    13    34    1
    27    13    35    1
    28    14    15   ar
    29    14    20    1
    30    17    18    2
    31    17    36    1
    32    18    37    1
    33    19    23   ar
    34    19    24   ar
    35    20    25    1
    36    20    38    1
    37    20    39    1
    38    21    40    1
    39    21    41    1
    40    21    42    1
    41    22    43    1
    42    22    44    1
    43    22    45    1
    44    23    26   ar
    45    24    27   ar
    46    24    46    1
    47    25    28    2
    48    25    47    1
    49    26    29   ar
    50    26    49    1
    51    27    29   ar
    52    27    50    1
    53    28    30    1
    54    28    31    1
    55    30    52    1
    56    30    56    1
    57    30    57    1
    58    31    53    1
    59    31    54    1
    60    31    55    1
    61    32    58    1
    62    32    59    1
    63    32    60    1
