@<TRIPOS>MOLECULE
IMPHY015357
 21 20 0 0 0
SMALL
GASTEIGER

@<TRIPOS>ATOM
      1 O           2.5369   -0.9330    0.0000 O.3     1  UNL1       -0.3889
      2 C           3.4030   -0.4330    0.0000 C.3     1  UNL1        0.0628
      3 C           4.2690    0.0670    0.0000 C.3     1  UNL1       -0.0271
      4 C           2.9030    0.4330    0.0000 C.3     1  UNL1       -0.0271
      5 C           3.9030   -1.2990    0.0000 C.3     1  UNL1       -0.0361
      6 C           5.1350   -0.4330    0.0000 C.3     1  UNL1       -0.0627
      7 C           3.4030    1.2990    0.0000 C.3     1  UNL1       -0.0627
      8 H           4.6675    0.5419    0.0000 H       1  UNL1        0.0290
      9 H           3.8705    0.5419    0.0000 H       1  UNL1        0.0290
     10 H           2.4280    0.8315    0.0000 H       1  UNL1        0.0290
     11 H           2.4280    0.0345    0.0000 H       1  UNL1        0.0290
     12 H           3.3660   -1.6090    0.0000 H       1  UNL1        0.0257
     13 H           4.2130   -1.8360    0.0000 H       1  UNL1        0.0257
     14 H           4.4399   -0.9890    0.0000 H       1  UNL1        0.0257
     15 H           4.8250   -0.9699    0.0000 H       1  UNL1        0.0231
     16 H           5.6720   -0.7430    0.0000 H       1  UNL1        0.0231
     17 H           5.4450    0.1039    0.0000 H       1  UNL1        0.0231
     18 H           3.9399    0.9890    0.0000 H       1  UNL1        0.0231
     19 H           3.7130    1.8360    0.0000 H       1  UNL1        0.0231
     20 H           2.8660    1.6090    0.0000 H       1  UNL1        0.0231
     21 H           2.0000   -0.6230    0.0000 H       1  UNL1        0.2101
@<TRIPOS>BOND
     1     1     2    1
     2     1    21    1
     3     2     3    1
     4     2     4    1
     5     2     5    1
     6     3     6    1
     7     3     8    1
     8     3     9    1
     9     4     7    1
    10     4    10    1
    11     4    11    1
    12     5    12    1
    13     5    13    1
    14     5    14    1
    15     6    15    1
    16     6    16    1
    17     6    17    1
    18     7    18    1
    19     7    19    1
    20     7    20    1
