@<TRIPOS>MOLECULE
IMPHY016379
 21 20 0 0 0
SMALL
GASTEIGER

@<TRIPOS>ATOM
      1 O           3.7320    0.7500    0.0000 O.3     1  UNL1       -0.4645
      2 O           2.8660   -0.7500    0.0000 O.2     1  UNL1       -0.2512
      3 C           5.4641    0.7500    0.0000 C.3     1  UNL1        0.0022
      4 C           4.5981    0.2500    0.0000 C.3     1  UNL1        0.0961
      5 C           6.3301    0.2500    0.0000 C.2     1  UNL1       -0.0765
      6 C           7.1962    0.7500    0.0000 C.3     1  UNL1       -0.0439
      7 C           6.3301   -0.7500    0.0000 C.2     1  UNL1       -0.0996
      8 C           2.8660    0.2500    0.0000 C.2     1  UNL1        0.3040
      9 C           2.0000    0.7500    0.0000 C.3     1  UNL1        0.0332
     10 H           5.8626    1.2250    0.0000 H       1  UNL1        0.0343
     11 H           5.0656    1.2250    0.0000 H       1  UNL1        0.0343
     12 H           4.1996   -0.2249    0.0000 H       1  UNL1        0.0700
     13 H           4.9966   -0.2249    0.0000 H       1  UNL1        0.0700
     14 H           7.5062    0.2131    0.0000 H       1  UNL1        0.0274
     15 H           7.7331    1.0600    0.0000 H       1  UNL1        0.0274
     16 H           6.8862    1.2869    0.0000 H       1  UNL1        0.0274
     17 H           5.7932   -1.0600    0.0000 H       1  UNL1        0.0534
     18 H           6.8671   -1.0600    0.0000 H       1  UNL1        0.0534
     19 H           2.3100    1.2869    0.0000 H       1  UNL1        0.0342
     20 H           1.4631    1.0600    0.0000 H       1  UNL1        0.0342
     21 H           1.6900    0.2131    0.0000 H       1  UNL1        0.0342
@<TRIPOS>BOND
     1     1     4    1
     2     1     8    1
     3     2     8    2
     4     3     4    1
     5     3     5    1
     6     3    10    1
     7     3    11    1
     8     4    12    1
     9     4    13    1
    10     5     6    1
    11     5     7    2
    12     6    14    1
    13     6    15    1
    14     6    16    1
    15     7    17    1
    16     7    18    1
    17     8     9    1
    18     9    19    1
    19     9    20    1
    20     9    21    1
