@<TRIPOS>MOLECULE
IMPHY012020
 26 25 0 0 0
SMALL
GASTEIGER

@<TRIPOS>ATOM
      1 O           5.4641    0.5670    0.0000 O.3     1  UNL1       -0.4594
      2 O           6.3301   -0.9330    0.0000 O.2     1  UNL1       -0.2512
      3 N           2.8660    0.0670    0.0000 N.4     1  UNL1        0.2393
      4 C           3.7320    0.5670    0.0000 C.3     1  UNL1        0.0042
      5 C           2.0000   -0.4330    0.0000 C.3     1  UNL1       -0.0417
      6 C           2.3660    0.9330    0.0000 C.3     1  UNL1       -0.0417
      7 C           3.3660   -0.7990    0.0000 C.3     1  UNL1       -0.0417
      8 C           4.5981    0.0670    0.0000 C.3     1  UNL1        0.1320
      9 C           6.3301    0.0670    0.0000 C.2     1  UNL1        0.3041
     10 C           7.1962    0.5670    0.0000 C.3     1  UNL1        0.0332
     11 H           4.1306    1.0419    0.0000 H       1  UNL1        0.0849
     12 H           3.3335    1.0419    0.0000 H       1  UNL1        0.0849
     13 H           1.6900    0.1039    0.0000 H       1  UNL1        0.0778
     14 H           1.4631   -0.7430    0.0000 H       1  UNL1        0.0778
     15 H           2.3100   -0.9699    0.0000 H       1  UNL1        0.0778
     16 H           2.9030    1.2430    0.0000 H       1  UNL1        0.0778
     17 H           2.0560    1.4700    0.0000 H       1  UNL1        0.0778
     18 H           1.8291    0.6230    0.0000 H       1  UNL1        0.0778
     19 H           2.8291   -1.1090    0.0000 H       1  UNL1        0.0778
     20 H           3.6760   -1.3360    0.0000 H       1  UNL1        0.0778
     21 H           3.9030   -0.4890    0.0000 H       1  UNL1        0.0778
     22 H           4.1996   -0.4080    0.0000 H       1  UNL1        0.0752
     23 H           4.9966   -0.4080    0.0000 H       1  UNL1        0.0752
     24 H           7.5062    0.0301    0.0000 H       1  UNL1        0.0342
     25 H           7.7331    0.8770    0.0000 H       1  UNL1        0.0342
     26 H           6.8862    1.1039    0.0000 H       1  UNL1        0.0342
@<TRIPOS>UNITY_ATOM_ATTR
3 1
charge 1
@<TRIPOS>BOND
     1     1     8    1
     2     1     9    1
     3     2     9    2
     4     3     4    1
     5     3     5    1
     6     3     6    1
     7     3     7    1
     8     4     8    1
     9     4    11    1
    10     4    12    1
    11     5    13    1
    12     5    14    1
    13     5    15    1
    14     6    16    1
    15     6    17    1
    16     6    18    1
    17     7    19    1
    18     7    20    1
    19     7    21    1
    20     8    22    1
    21     8    23    1
    22     9    10    1
    23    10    24    1
    24    10    25    1
    25    10    26    1
