@<TRIPOS>MOLECULE
IMPHY012978
 66 67 0 0 0
SMALL
GASTEIGER

@<TRIPOS>ATOM
      1 O           6.0682   -3.0981    0.0000 O.3     1  UNL1       -0.4857
      2 O           2.5381   -1.0739    0.0000 O.3     1  UNL1       -0.5068
      3 C           6.9343   -2.5981    0.0000 C.3     1  UNL1        0.1085
      4 C           6.9343   -1.5981    0.0000 C.3     1  UNL1       -0.0091
      5 C           7.9343   -2.5981    0.0000 C.3     1  UNL1       -0.0097
      6 C           6.0682   -1.0981    0.0000 C.3     1  UNL1       -0.0205
      7 C           7.4343   -3.4641    0.0000 C.3     1  UNL1       -0.0249
      8 C           5.2022   -1.5981    0.0000 C.ar    1  UNL1       -0.0021
      9 C           8.4343   -1.7320    0.0000 C.3     1  UNL1       -0.0309
     10 C           5.2022   -2.5981    0.0000 C.ar    1  UNL1        0.1247
     11 C           9.4343   -1.7320    0.0000 C.2     1  UNL1       -0.0849
     12 C           4.3083   -1.0634    0.0000 C.ar    1  UNL1       -0.0135
     13 C           4.3083   -3.1327    0.0000 C.ar    1  UNL1       -0.0162
     14 C           9.9343   -0.8660    0.0000 C.2     1  UNL1       -0.0762
     15 C           3.4022   -1.5773    0.0000 C.ar    1  UNL1        0.1173
     16 C           3.4022   -2.6189    0.0000 C.ar    1  UNL1       -0.0167
     17 C          10.9343   -0.8660    0.0000 C.3     1  UNL1       -0.0286
     18 C          11.4343    0.0000    0.0000 C.3     1  UNL1       -0.0308
     19 C           9.4343   -0.0000    0.0000 C.3     1  UNL1       -0.0438
     20 C          12.4343    0.0000    0.0000 C.2     1  UNL1       -0.0847
     21 C          12.9343    0.8660    0.0000 C.2     1  UNL1       -0.0762
     22 C          13.9343    0.8660    0.0000 C.3     1  UNL1       -0.0286
     23 C          14.4343    1.7320    0.0000 C.3     1  UNL1       -0.0308
     24 C          12.4343    1.7320    0.0000 C.3     1  UNL1       -0.0438
     25 C          15.4343    1.7320    0.0000 C.2     1  UNL1       -0.0850
     26 C          15.9343    2.5981    0.0000 C.2     1  UNL1       -0.0796
     27 C          16.9343    2.5981    0.0000 C.3     1  UNL1       -0.0440
     28 C          15.4343    3.4641    0.0000 C.3     1  UNL1       -0.0440
     29 H           7.5449   -1.7057    0.0000 H       1  UNL1        0.0307
     30 H           7.1463   -1.0155    0.0000 H       1  UNL1        0.0307
     31 H           7.8266   -3.2087    0.0000 H       1  UNL1        0.0306
     32 H           8.5169   -2.8101    0.0000 H       1  UNL1        0.0306
     33 H           6.4668   -0.6231    0.0000 H       1  UNL1        0.0316
     34 H           5.6697   -0.6231    0.0000 H       1  UNL1        0.0316
     35 H           6.8973   -3.7741    0.0000 H       1  UNL1        0.0268
     36 H           7.7443   -4.0010    0.0000 H       1  UNL1        0.0268
     37 H           7.9712   -3.1541    0.0000 H       1  UNL1        0.0268
     38 H           8.5419   -1.1215    0.0000 H       1  UNL1        0.0309
     39 H           7.8517   -1.5200    0.0000 H       1  UNL1        0.0309
     40 H           9.7443   -2.2690    0.0000 H       1  UNL1        0.0572
     41 H           4.3154   -0.4435    0.0000 H       1  UNL1        0.0658
     42 H           4.3154   -3.7527    0.0000 H       1  UNL1        0.0655
     43 H           2.8665   -2.9310    0.0000 H       1  UNL1        0.0655
     44 H          10.8266   -1.4766    0.0000 H       1  UNL1        0.0313
     45 H          11.5169   -1.0781    0.0000 H       1  UNL1        0.0313
     46 H          11.5419    0.6106    0.0000 H       1  UNL1        0.0310
     47 H          10.8517    0.2121    0.0000 H       1  UNL1        0.0310
     48 H           9.9712    0.3100    0.0000 H       1  UNL1        0.0274
     49 H           9.1243    0.5369    0.0000 H       1  UNL1        0.0274
     50 H           8.8973   -0.3100    0.0000 H       1  UNL1        0.0274
     51 H          12.7443   -0.5369    0.0000 H       1  UNL1        0.0572
     52 H           2.0000   -1.3818    0.0000 H       1  UNL1        0.2921
     53 H          13.8266    0.2554    0.0000 H       1  UNL1        0.0313
     54 H          14.5169    0.6540    0.0000 H       1  UNL1        0.0313
     55 H          14.5419    2.3426    0.0000 H       1  UNL1        0.0310
     56 H          13.8517    1.9441    0.0000 H       1  UNL1        0.0310
     57 H          12.9712    2.0420    0.0000 H       1  UNL1        0.0274
     58 H          12.1243    2.2690    0.0000 H       1  UNL1        0.0274
     59 H          11.8973    1.4220    0.0000 H       1  UNL1        0.0274
     60 H          15.7443    1.1951    0.0000 H       1  UNL1        0.0572
     61 H          16.9343    1.9781    0.0000 H       1  UNL1        0.0274
     62 H          17.5543    2.5981    0.0000 H       1  UNL1        0.0274
     63 H          16.9343    3.2181    0.0000 H       1  UNL1        0.0274
     64 H          15.9712    3.7741    0.0000 H       1  UNL1        0.0274
     65 H          15.1243    4.0010    0.0000 H       1  UNL1        0.0274
     66 H          14.8973    3.1541    0.0000 H       1  UNL1        0.0274
@<TRIPOS>BOND
     1     1     3    1
     2     1    10    1
     3     2    15    1
     4     2    52    1
     5     3     4    1
     6     3     5    1
     7     3     7    1
     8     4     6    1
     9     4    29    1
    10     4    30    1
    11     5     9    1
    12     5    31    1
    13     5    32    1
    14     6     8    1
    15     6    33    1
    16     6    34    1
    17     7    35    1
    18     7    36    1
    19     7    37    1
    20     8    10   ar
    21     8    12   ar
    22     9    11    1
    23     9    38    1
    24     9    39    1
    25    10    13   ar
    26    11    14    2
    27    11    40    1
    28    12    15   ar
    29    12    41    1
    30    13    16   ar
    31    13    42    1
    32    14    17    1
    33    14    19    1
    34    15    16   ar
    35    16    43    1
    36    17    18    1
    37    17    44    1
    38    17    45    1
    39    18    20    1
    40    18    46    1
    41    18    47    1
    42    19    48    1
    43    19    49    1
    44    19    50    1
    45    20    21    2
    46    20    51    1
    47    21    22    1
    48    21    24    1
    49    22    23    1
    50    22    53    1
    51    22    54    1
    52    23    25    1
    53    23    55    1
    54    23    56    1
    55    24    57    1
    56    24    58    1
    57    24    59    1
    58    25    26    2
    59    25    60    1
    60    26    27    1
    61    26    28    1
    62    27    61    1
    63    27    62    1
    64    27    63    1
    65    28    64    1
    66    28    65    1
    67    28    66    1
