@<TRIPOS>MOLECULE
IMPHY000519
 22 25 0 0 0
SMALL
GASTEIGER

@<TRIPOS>ATOM
      1 O        2482.7800 2410.0200    0.0000 O.3     1  UNL1       -0.2154
      2 C        2482.7800 2450.0200    0.0000 C.3     1  UNL1        0.2080
      3 C        2517.4200 2469.9800    0.0000 C.3     1  UNL1        0.1941
      4 C        2517.4200 2509.9800    0.0000 C.3     1  UNL1        0.2178
      5 C        2552.0600 2530.0200    0.0000 C.ar    1  UNL1        0.0214
      6 C        2586.7000 2509.9800    0.0000 C.ar    1  UNL1        0.0489
      7 C        2586.7000 2469.9800    0.0000 C.3     1  UNL1        0.1719
      8 O        2552.0600 2450.0200    0.0000 O.3     1  UNL1       -0.3444
      9 C        2621.2400 2530.0200    0.0000 C.ar    1  UNL1        0.2324
     10 O        2655.8800 2509.9800    0.0000 O.3     1  UNL1       -0.2834
     11 C        2621.2400 2570.0200    0.0000 C.ar    1  UNL1        0.2340
     12 C        2586.7000 2589.9800    0.0000 C.ar    1  UNL1        0.0452
     13 C        2552.0600 2570.0200    0.0000 C.ar    1  UNL1        0.0025
     14 O        2655.8800 2589.9800    0.0000 O.3     1  UNL1       -0.2832
     15 O        2482.7800 2530.0200    0.0000 O.3     1  UNL1       -0.4723
     16 C        2448.0400 2509.9800    0.0000 C.ar    1  UNL1        0.1406
     17 C        2448.0400 2469.9800    0.0000 C.ar    1  UNL1        0.0445
     18 C        2413.5000 2450.0200    0.0000 C.ar    1  UNL1        0.0045
     19 C        2378.7600 2469.9800    0.0000 C.ar    1  UNL1        0.0420
     20 C        2378.7600 2509.9800    0.0000 C.ar    1  UNL1        0.1988
     21 C        2413.5000 2530.0200    0.0000 C.ar    1  UNL1        0.0786
     22 O        2344.1200 2530.0200    0.0000 O.3     1  UNL1       -0.2865
@<TRIPOS>BOND
     1     2     1    1
     2     2     3    1
     3     2    17    1
     4     3     4    1
     5     3     8    1
     6     4     5    1
     7     4    15    1
     8     5     6   ar
     9     5    13   ar
    10     6     9   ar
    11     7     6    1
    12     8     7    1
    13     9    10    1
    14     9    11   ar
    15    11    14    1
    16    12    11   ar
    17    13    12   ar
    18    16    15    1
    19    16    21   ar
    20    17    16   ar
    21    17    18   ar
    22    18    19   ar
    23    19    20   ar
    24    20    22    1
    25    21    20   ar
