@<TRIPOS>MOLECULE
IMPHY000097
 62 66 0 0 0
SMALL
GASTEIGER

@<TRIPOS>ATOM
      1 O           7.9288   -1.6474    0.0000 O.3     1  UNL1       -0.3877
      2 O           5.2710   -3.1958    0.0000 O.3     1  UNL1       -0.3879
      3 O           2.5357   -2.6997    0.0000 O.3     1  UNL1       -0.3917
      4 O           9.1885    3.2259    0.0000 O.3     1  UNL1       -0.4571
      5 O          10.9491    3.5016    0.0000 O.2     1  UNL1       -0.2456
      6 C           7.9288   -0.6474    0.0000 C.3     1  UNL1        0.0751
      7 C           7.0628   -1.1474    0.0000 C.3     1  UNL1       -0.0081
      8 C           6.1968   -0.6474    0.0000 C.3     1  UNL1       -0.0275
      9 C           7.9288    0.3526    0.0000 C.3     1  UNL1        0.0036
     10 C           5.2868   -1.1542    0.0000 C.3     1  UNL1        0.0001
     11 C           5.2787   -2.1958    0.0000 C.3     1  UNL1        0.0741
     12 C           6.1968    0.3526    0.0000 C.3     1  UNL1       -0.0487
     13 C           7.0628    0.8526    0.0000 C.3     1  UNL1       -0.0442
     14 C           8.8750    0.6574    0.0000 C.3     1  UNL1       -0.0081
     15 C           7.0789   -2.1889    0.0000 C.3     1  UNL1       -0.0447
     16 C           8.8750   -0.9521    0.0000 C.3     1  UNL1       -0.0226
     17 C           6.1808   -2.7166    0.0000 C.3     1  UNL1       -0.0230
     18 C           9.4586   -0.1474    0.0000 C.3     1  UNL1       -0.0432
     19 C           4.3599   -0.5901    0.0000 C.3     1  UNL1       -0.0424
     20 C           4.3433   -2.7455    0.0000 C.3     1  UNL1        0.0026
     21 C           7.9288    1.3526    0.0000 C.3     1  UNL1       -0.0564
     22 C           5.2945   -0.1542    0.0000 C.3     1  UNL1       -0.0567
     23 C           3.4120   -1.1181    0.0000 C.3     1  UNL1       -0.0262
     24 C           3.4037   -2.2030    0.0000 C.3     1  UNL1        0.0579
     25 C           9.1857    1.6079    0.0000 C.2     1  UNL1       -0.0222
     26 C           8.5993    2.4179    0.0000 C.3     1  UNL1        0.1147
     27 C          10.1373    1.9152    0.0000 C.2     1  UNL1        0.0252
     28 C          10.1390    2.9152    0.0000 C.2     1  UNL1        0.3323
     29 H           7.8022   -1.5667    0.0000 H       1  UNL1        0.0331
     30 H           6.9329   -0.2224    0.0000 H       1  UNL1        0.0310
     31 H           5.9847    0.9352    0.0000 H       1  UNL1        0.0268
     32 H           5.5862    0.2450    0.0000 H       1  UNL1        0.0268
     33 H           7.4613    1.3276    0.0000 H       1  UNL1        0.0272
     34 H           6.6643    1.3276    0.0000 H       1  UNL1        0.0272
     35 H           9.4875    0.7536    0.0000 H       1  UNL1        0.0353
     36 H           7.2969   -2.7693    0.0000 H       1  UNL1        0.0270
     37 H           7.6880   -2.0734    0.0000 H       1  UNL1        0.0270
     38 H           8.6240   -1.5190    0.0000 H       1  UNL1        0.0293
     39 H           9.4124   -1.2613    0.0000 H       1  UNL1        0.0293
     40 H           5.7835   -3.1926    0.0000 H       1  UNL1        0.0293
     41 H           6.5818   -3.1895    0.0000 H       1  UNL1        0.0293
     42 H           9.9195   -0.5621    0.0000 H       1  UNL1        0.0272
     43 H           9.9195    0.2674    0.0000 H       1  UNL1        0.0272
     44 H           4.7681   -0.1235    0.0000 H       1  UNL1        0.0272
     45 H           3.9700   -0.1081    0.0000 H       1  UNL1        0.0272
     46 H           3.9460   -3.2215    0.0000 H       1  UNL1        0.0318
     47 H           4.7443   -3.2184    0.0000 H       1  UNL1        0.0318
     48 H           8.5488    1.3526    0.0000 H       1  UNL1        0.0236
     49 H           7.9288    1.9726    0.0000 H       1  UNL1        0.0236
     50 H           7.3088    1.3526    0.0000 H       1  UNL1        0.0236
     51 H           5.9145   -0.1590    0.0000 H       1  UNL1        0.0236
     52 H           5.2993    0.4657    0.0000 H       1  UNL1        0.0236
     53 H           4.6745   -0.1495    0.0000 H       1  UNL1        0.0236
     54 H           3.2075   -0.5328    0.0000 H       1  UNL1        0.0290
     55 H           2.8004   -1.2195    0.0000 H       1  UNL1        0.0290
     56 H           3.4025   -2.8230    0.0000 H       1  UNL1        0.0594
     57 H           8.4658   -1.9574    0.0000 H       1  UNL1        0.2102
     58 H           4.7317   -3.5016    0.0000 H       1  UNL1        0.2102
     59 H           8.1393    2.8336    0.0000 H       1  UNL1        0.0746
     60 H           8.1378    2.0038    0.0000 H       1  UNL1        0.0746
     61 H          10.6383    1.5500    0.0000 H       1  UNL1        0.0689
     62 H           2.0000   -2.3876    0.0000 H       1  UNL1        0.2098
@<TRIPOS>BOND
     1     6     1    1
     2     1    57    1
     3    11     2    1
     4     2    58    1
     5    24     3    1
     6     3    62    1
     7     4    26    1
     8     4    28    1
     9     5    28    2
    10     6     7    1
    11     6     9    1
    12     6    16    1
    13     7     8    1
    14     7    15    1
    15     7    29    1
    16     8    10    1
    17     8    12    1
    18     8    30    1
    19     9    13    1
    20     9    14    1
    21     9    21    1
    22    10    11    1
    23    10    19    1
    24    10    22    1
    25    11    17    1
    26    11    20    1
    27    12    13    1
    28    12    31    1
    29    12    32    1
    30    13    33    1
    31    13    34    1
    32    14    18    1
    33    14    25    1
    34    14    35    1
    35    15    17    1
    36    15    36    1
    37    15    37    1
    38    16    18    1
    39    16    38    1
    40    16    39    1
    41    17    40    1
    42    17    41    1
    43    18    42    1
    44    18    43    1
    45    19    23    1
    46    19    44    1
    47    19    45    1
    48    20    24    1
    49    20    46    1
    50    20    47    1
    51    21    48    1
    52    21    49    1
    53    21    50    1
    54    22    51    1
    55    22    52    1
    56    22    53    1
    57    23    24    1
    58    23    54    1
    59    23    55    1
    60    24    56    1
    61    25    26    1
    62    25    27    2
    63    26    59    1
    64    26    60    1
    65    27    28    1
    66    27    61    1
