@<TRIPOS>MOLECULE
IMPHY007680
 45 48 0 0 0
SMALL
GASTEIGER

@<TRIPOS>ATOM
      1 O           2.9712    2.2773    0.0000 O.3     1  UNL1       -0.4914
      2 O          11.2948   -1.5215    0.0000 O.3     1  UNL1       -0.4914
      3 O           9.7030   -2.8106    0.0000 O.3     1  UNL1       -0.5033
      4 O           2.4066    0.3083    0.0000 O.3     1  UNL1       -0.5033
      5 N           6.6843    2.3329    0.0000 N.3     1  UNL1       -0.2909
      6 C           7.4209    1.3502    0.0000 C.3     1  UNL1        0.0403
      7 C           7.1621    0.3843    0.0000 C.3     1  UNL1        0.0403
      8 C           8.8525    1.1526    0.0000 C.3     1  UNL1       -0.0074
      9 C           5.9410   -0.4813    0.0000 C.3     1  UNL1       -0.0074
     10 C           5.3876    1.0391    0.0000 C.ar    1  UNL1       -0.0230
     11 C           8.4338   -0.4103    0.0000 C.ar    1  UNL1       -0.0230
     12 C           9.2109    0.2190    0.0000 C.ar    1  UNL1       -0.0372
     13 C           5.1120    0.0779    0.0000 C.ar    1  UNL1       -0.0372
     14 C           6.1843    3.1989    0.0000 C.3     1  UNL1       -0.0116
     15 C           4.6757    1.7995    0.0000 C.ar    1  UNL1       -0.0114
     16 C           8.5808   -1.4415    0.0000 C.ar    1  UNL1       -0.0116
     17 C          10.1890   -0.1392    0.0000 C.ar    1  UNL1       -0.0128
     18 C           4.1053   -0.1897    0.0000 C.ar    1  UNL1       -0.0130
     19 C           3.6631    1.5553    0.0000 C.ar    1  UNL1        0.1616
     20 C           9.5504   -1.8223    0.0000 C.ar    1  UNL1        0.1588
     21 C          10.3599   -1.1668    0.0000 C.ar    1  UNL1        0.1615
     22 C           3.3760    0.5540    0.0000 C.ar    1  UNL1        0.1587
     23 C           2.0000    2.0391    0.0000 C.3     1  UNL1        0.0790
     24 C          12.0695   -0.8892    0.0000 C.3     1  UNL1        0.0790
     25 H           7.6409    2.1713    0.0000 H       1  UNL1        0.0516
     26 H           6.9421   -0.4367    0.0000 H       1  UNL1        0.0516
     27 H           9.4603    1.2749    0.0000 H       1  UNL1        0.0332
     28 H           8.8335    1.7723    0.0000 H       1  UNL1        0.0332
     29 H           5.5352   -0.9501    0.0000 H       1  UNL1        0.0332
     30 H           6.3577   -0.9405    0.0000 H       1  UNL1        0.0332
     31 H           6.7212    3.5089    0.0000 H       1  UNL1        0.0391
     32 H           5.8743    3.7358    0.0000 H       1  UNL1        0.0391
     33 H           5.6473    2.8889    0.0000 H       1  UNL1        0.0391
     34 H           4.8535    2.3934    0.0000 H       1  UNL1        0.0659
     35 H           8.0945   -1.8261    0.0000 H       1  UNL1        0.0658
     36 H          10.6663    0.2565    0.0000 H       1  UNL1        0.0658
     37 H           3.9413   -0.7876    0.0000 H       1  UNL1        0.0658
     38 H           9.2196   -3.1989    0.0000 H       1  UNL1        0.2923
     39 H           2.2380   -0.2883    0.0000 H       1  UNL1        0.2923
     40 H           1.8523    2.6413    0.0000 H       1  UNL1        0.0660
     41 H           1.3978    1.8914    0.0000 H       1  UNL1        0.0660
     42 H           2.1477    1.4370    0.0000 H       1  UNL1        0.0660
     43 H          12.4616   -1.3695    0.0000 H       1  UNL1        0.0660
     44 H          12.5498   -0.4972    0.0000 H       1  UNL1        0.0660
     45 H          11.6775   -0.4089    0.0000 H       1  UNL1        0.0660
@<TRIPOS>BOND
     1     1    19    1
     2     1    23    1
     3     2    21    1
     4     2    24    1
     5     3    20    1
     6     3    38    1
     7     4    22    1
     8     4    39    1
     9     5     6    1
    10     5     7    1
    11     5    14    1
    12     6     8    1
    13     6    10    1
    14     6    25    1
    15     7     9    1
    16     7    11    1
    17     7    26    1
    18     8    12    1
    19     8    27    1
    20     8    28    1
    21     9    13    1
    22     9    29    1
    23     9    30    1
    24    10    13   ar
    25    10    15   ar
    26    11    12   ar
    27    11    16   ar
    28    12    17   ar
    29    13    18   ar
    30    14    31    1
    31    14    32    1
    32    14    33    1
    33    15    19   ar
    34    15    34    1
    35    16    20   ar
    36    16    35    1
    37    17    21   ar
    38    17    36    1
    39    18    22   ar
    40    18    37    1
    41    19    22   ar
    42    20    21   ar
    43    23    40    1
    44    23    41    1
    45    23    42    1
    46    24    43    1
    47    24    44    1
    48    24    45    1
