@<TRIPOS>MOLECULE
IMPHY016100
 53 52 0 0 0
SMALL
GASTEIGER

@<TRIPOS>ATOM
      1 O          15.8564   -0.9400    0.0000 O.2     1  UNL1       -0.3010
      2 C           9.7942   -1.4400    0.0000 C.3     1  UNL1       -0.0531
      3 C           8.9282   -0.9400    0.0000 C.3     1  UNL1       -0.0531
      4 C          10.6603   -0.9400    0.0000 C.3     1  UNL1       -0.0531
      5 C           8.0622   -1.4400    0.0000 C.3     1  UNL1       -0.0530
      6 C          11.5263   -1.4400    0.0000 C.3     1  UNL1       -0.0530
      7 C           7.1962   -0.9400    0.0000 C.3     1  UNL1       -0.0528
      8 C          12.3923   -0.9400    0.0000 C.3     1  UNL1       -0.0527
      9 C           6.3301   -1.4400    0.0000 C.3     1  UNL1       -0.0496
     10 C          13.2583   -1.4400    0.0000 C.3     1  UNL1       -0.0466
     11 C           5.4641   -0.9400    0.0000 C.3     1  UNL1       -0.0348
     12 C          14.1244   -0.9400    0.0000 C.3     1  UNL1        0.0028
     13 C           4.5981   -1.4400    0.0000 C.2     1  UNL1       -0.0879
     14 C           3.7320    0.0600    0.0000 C.3     1  UNL1       -0.0348
     15 C           3.7320   -0.9400    0.0000 C.2     1  UNL1       -0.0879
     16 C           2.8660    0.5600    0.0000 C.3     1  UNL1       -0.0499
     17 C           2.8660    1.5600    0.0000 C.3     1  UNL1       -0.0556
     18 C          14.9904   -1.4400    0.0000 C.2     1  UNL1        0.1203
     19 C           2.0000    2.0600    0.0000 C.3     1  UNL1       -0.0653
     20 H           9.3957   -1.9150    0.0000 H       1  UNL1        0.0265
     21 H          10.1928   -1.9150    0.0000 H       1  UNL1        0.0265
     22 H           9.3267   -0.4651    0.0000 H       1  UNL1        0.0265
     23 H           8.5297   -0.4651    0.0000 H       1  UNL1        0.0265
     24 H          11.0588   -0.4651    0.0000 H       1  UNL1        0.0265
     25 H          10.2617   -0.4651    0.0000 H       1  UNL1        0.0265
     26 H           7.6636   -1.9150    0.0000 H       1  UNL1        0.0265
     27 H           8.4607   -1.9150    0.0000 H       1  UNL1        0.0265
     28 H          11.1278   -1.9150    0.0000 H       1  UNL1        0.0265
     29 H          11.9248   -1.9150    0.0000 H       1  UNL1        0.0265
     30 H           7.5947   -0.4651    0.0000 H       1  UNL1        0.0265
     31 H           6.7976   -0.4651    0.0000 H       1  UNL1        0.0265
     32 H          12.7908   -0.4651    0.0000 H       1  UNL1        0.0265
     33 H          11.9938   -0.4651    0.0000 H       1  UNL1        0.0265
     34 H           5.9316   -1.9150    0.0000 H       1  UNL1        0.0268
     35 H           6.7287   -1.9150    0.0000 H       1  UNL1        0.0268
     36 H          12.8598   -1.9150    0.0000 H       1  UNL1        0.0269
     37 H          13.6569   -1.9150    0.0000 H       1  UNL1        0.0269
     38 H           5.8626   -0.4651    0.0000 H       1  UNL1        0.0307
     39 H           5.0656   -0.4651    0.0000 H       1  UNL1        0.0307
     40 H          14.5229   -0.4651    0.0000 H       1  UNL1        0.0339
     41 H          13.7258   -0.4651    0.0000 H       1  UNL1        0.0339
     42 H           4.5981   -2.0600    0.0000 H       1  UNL1        0.0569
     43 H           4.3426   -0.0477    0.0000 H       1  UNL1        0.0307
     44 H           3.9441    0.6426    0.0000 H       1  UNL1        0.0307
     45 H           3.1951   -1.2500    0.0000 H       1  UNL1        0.0569
     46 H           2.2554    0.6677    0.0000 H       1  UNL1        0.0268
     47 H           2.6540   -0.0226    0.0000 H       1  UNL1        0.0268
     48 H           3.4766    1.4523    0.0000 H       1  UNL1        0.0263
     49 H           3.0781    2.1426    0.0000 H       1  UNL1        0.0263
     50 H          14.9904   -2.0600    0.0000 H       1  UNL1        0.1026
     51 H           2.3100    2.5969    0.0000 H       1  UNL1        0.0230
     52 H           1.4631    2.3700    0.0000 H       1  UNL1        0.0230
     53 H           1.6900    1.5231    0.0000 H       1  UNL1        0.0230
@<TRIPOS>BOND
     1     1    18    2
     2     2     3    1
     3     2     4    1
     4     2    20    1
     5     2    21    1
     6     3     5    1
     7     3    22    1
     8     3    23    1
     9     4     6    1
    10     4    24    1
    11     4    25    1
    12     5     7    1
    13     5    26    1
    14     5    27    1
    15     6     8    1
    16     6    28    1
    17     6    29    1
    18     7     9    1
    19     7    30    1
    20     7    31    1
    21     8    10    1
    22     8    32    1
    23     8    33    1
    24     9    11    1
    25     9    34    1
    26     9    35    1
    27    10    12    1
    28    10    36    1
    29    10    37    1
    30    11    13    1
    31    11    38    1
    32    11    39    1
    33    12    18    1
    34    12    40    1
    35    12    41    1
    36    13    15    2
    37    13    42    1
    38    14    15    1
    39    14    16    1
    40    14    43    1
    41    14    44    1
    42    15    45    1
    43    16    17    1
    44    16    46    1
    45    16    47    1
    46    17    19    1
    47    17    48    1
    48    17    49    1
    49    18    50    1
    50    19    51    1
    51    19    52    1
    52    19    53    1
