@<TRIPOS>MOLECULE
IMPHY017695
 48 51 0 0 0
SMALL
GASTEIGER

@<TRIPOS>ATOM
      1 O           5.5103    2.3424    0.0000 O.3     1  UNL1       -0.4908
      2 O           8.9772   -2.6923    0.0000 O.3     1  UNL1       -0.4535
      3 O           7.2762    3.3802    0.0000 O.3     1  UNL1       -0.5033
      4 O           7.2452   -2.6795    0.0000 O.2     1  UNL1       -0.2262
      5 O           2.8680    0.8351    0.0000 O.3     1  UNL1       -0.4914
      6 O           2.8680   -1.2132    0.0000 O.3     1  UNL1       -0.5033
      7 N           8.1223   -1.1860    0.0000 N.am    1  UNL1       -0.2597
      8 C           7.2641   -0.6890    0.0000 C.3     1  UNL1        0.0592
      9 C           7.2641    0.3110    0.0000 C.ar    1  UNL1       -0.0119
     10 C           6.3981   -1.1890    0.0000 C.3     1  UNL1       -0.0040
     11 C           8.1741    0.8178    0.0000 C.ar    1  UNL1       -0.0367
     12 C           6.3981    0.8110    0.0000 C.ar    1  UNL1        0.0330
     13 C           8.9878   -0.7018    0.0000 C.3     1  UNL1        0.0224
     14 C           9.0134    0.2896    0.0000 C.3     1  UNL1       -0.0112
     15 C           5.5320   -0.6890    0.0000 C.ar    1  UNL1       -0.0338
     16 C           5.5320    0.3110    0.0000 C.ar    1  UNL1       -0.0070
     17 C           6.3820    1.8525    0.0000 C.ar    1  UNL1        0.1693
     18 C           8.1821    1.8594    0.0000 C.ar    1  UNL1       -0.0129
     19 C           7.2800    2.3802    0.0000 C.ar    1  UNL1        0.1593
     20 C           4.6381   -1.2237    0.0000 C.ar    1  UNL1       -0.0127
     21 C           8.1149   -2.1859    0.0000 C.2     1  UNL1        0.4031
     22 C           4.6381    0.8456    0.0000 C.ar    1  UNL1       -0.0082
     23 C           3.7320    0.3318    0.0000 C.ar    1  UNL1        0.1619
     24 C           3.7320   -0.7098    0.0000 C.ar    1  UNL1        0.1587
     25 C           5.4987    3.3424    0.0000 C.3     1  UNL1        0.0790
     26 C           8.9698   -3.6923    0.0000 C.3     1  UNL1        0.0833
     27 C           2.0000    0.3385    0.0000 C.3     1  UNL1        0.0790
     28 H           7.2636   -1.5390    0.0000 H       1  UNL1        0.0555
     29 H           5.9995   -1.6640    0.0000 H       1  UNL1        0.0335
     30 H           6.7966   -1.6640    0.0000 H       1  UNL1        0.0335
     31 H           9.1895   -1.2880    0.0000 H       1  UNL1        0.0469
     32 H           9.6006   -0.6074    0.0000 H       1  UNL1        0.0469
     33 H           9.6205    0.1637    0.0000 H       1  UNL1        0.0329
     34 H           9.2452    0.8646    0.0000 H       1  UNL1        0.0329
     35 H           8.7203    2.1674    0.0000 H       1  UNL1        0.0658
     36 H           4.6453   -1.8436    0.0000 H       1  UNL1        0.0658
     37 H           4.6453    1.4656    0.0000 H       1  UNL1        0.0661
     38 H           7.8119    3.6923    0.0000 H       1  UNL1        0.2923
     39 H           6.1187    3.3495    0.0000 H       1  UNL1        0.0660
     40 H           5.4915    3.9623    0.0000 H       1  UNL1        0.0660
     41 H           4.8787    3.3352    0.0000 H       1  UNL1        0.0660
     42 H           2.8703   -1.8332    0.0000 H       1  UNL1        0.2923
     43 H           8.3498   -3.6877    0.0000 H       1  UNL1        0.0661
     44 H           8.9652   -4.3123    0.0000 H       1  UNL1        0.0661
     45 H           9.5898   -3.6969    0.0000 H       1  UNL1        0.0661
     46 H           1.6921    0.8766    0.0000 H       1  UNL1        0.0660
     47 H           1.4619    0.0305    0.0000 H       1  UNL1        0.0660
     48 H           2.3079   -0.1997    0.0000 H       1  UNL1        0.0660
@<TRIPOS>BOND
     1     1    17    1
     2     1    25    1
     3     2    21    1
     4     2    26    1
     5     3    19    1
     6     3    38    1
     7     4    21    2
     8     5    23    1
     9     5    27    1
    10     6    24    1
    11     6    42    1
    12     7     8    1
    13     7    13    1
    14     7    21   am
    15     8     9    1
    16     8    10    1
    17     8    28    1
    18     9    11   ar
    19     9    12   ar
    20    10    15    1
    21    10    29    1
    22    10    30    1
    23    11    14    1
    24    11    18   ar
    25    12    16    1
    26    12    17   ar
    27    13    14    1
    28    13    31    1
    29    13    32    1
    30    14    33    1
    31    14    34    1
    32    15    16   ar
    33    15    20   ar
    34    16    22   ar
    35    17    19   ar
    36    18    19   ar
    37    18    35    1
    38    20    24   ar
    39    20    36    1
    40    22    23   ar
    41    22    37    1
    42    23    24   ar
    43    25    39    1
    44    25    40    1
    45    25    41    1
    46    26    43    1
    47    26    44    1
    48    26    45    1
    49    27    46    1
    50    27    47    1
    51    27    48    1
