@<TRIPOS>MOLECULE
IMPHY009165
 73 76 0 0 0
SMALL
GASTEIGER

@<TRIPOS>ATOM
      1 O          10.1354    3.6043    0.0000 O.2     1  UNL1       -0.2759
      2 N          10.4926    1.9095    0.0000 N.am    1  UNL1       -0.3017
      3 N           2.8641   -2.6043    0.0000 N.3     1  UNL1       -0.3051
      4 C           8.2572    0.4480    0.0000 C.3     1  UNL1       -0.0245
      5 C           8.2572   -0.5520    0.0000 C.3     1  UNL1       -0.0319
      6 C           7.3912   -1.0520    0.0000 C.3     1  UNL1       -0.0307
      7 C           6.5251   -0.5520    0.0000 C.3     1  UNL1       -0.0285
      8 C           9.2034    0.7527    0.0000 C.3     1  UNL1       -0.0170
      9 C           5.6151   -1.0588    0.0000 C.3     1  UNL1       -0.0079
     10 C           7.3912    0.9480    0.0000 C.3     1  UNL1       -0.0468
     11 C           9.2034   -0.8567    0.0000 C.3     1  UNL1       -0.0491
     12 C           6.5251    0.4480    0.0000 C.3     1  UNL1       -0.0486
     13 C           9.7870   -0.0520    0.0000 C.3     1  UNL1       -0.0478
     14 C           7.4072   -2.0935    0.0000 C.3     1  UNL1       -0.0311
     15 C           8.2572    1.4480    0.0000 C.3     1  UNL1       -0.0590
     16 C           5.6071   -2.1004    0.0000 C.2     1  UNL1       -0.0658
     17 C           9.5141    1.7033    0.0000 C.3     1  UNL1        0.0262
     18 C           4.6883   -0.4947    0.0000 C.3     1  UNL1       -0.0422
     19 C           6.5092   -2.6212    0.0000 C.2     1  UNL1       -0.0839
     20 C           5.6228   -0.0589    0.0000 C.3     1  UNL1       -0.0556
     21 C           4.6717   -2.6502    0.0000 C.3     1  UNL1       -0.0156
     22 C           3.7404   -1.0227    0.0000 C.3     1  UNL1       -0.0363
     23 C           3.7320   -2.1077    0.0000 C.3     1  UNL1        0.0135
     24 C           8.8462    2.4476    0.0000 C.3     1  UNL1       -0.0462
     25 C          11.1604    1.1652    0.0000 C.3     1  UNL1        0.0034
     26 C          10.8032    2.8600    0.0000 C.2     1  UNL1        0.2125
     27 C           2.0000   -2.1010    0.0000 C.3     1  UNL1       -0.0128
     28 C           2.8602   -3.6043    0.0000 C.3     1  UNL1       -0.0128
     29 C          11.7817    3.0662    0.0000 C.3     1  UNL1        0.0124
     30 H           8.3471   -1.3972    0.0000 H       1  UNL1        0.0309
     31 H           8.1305   -1.4713    0.0000 H       1  UNL1        0.0309
     32 H           7.2612   -0.1270    0.0000 H       1  UNL1        0.0312
     33 H          10.0431    0.8846    0.0000 H       1  UNL1        0.0324
     34 H           7.7897    1.4230    0.0000 H       1  UNL1        0.0271
     35 H           6.9926    1.4230    0.0000 H       1  UNL1        0.0271
     36 H           8.9524   -1.4236    0.0000 H       1  UNL1        0.0268
     37 H           9.7408   -1.1659    0.0000 H       1  UNL1        0.0268
     38 H           6.3131    1.0306    0.0000 H       1  UNL1        0.0268
     39 H           5.9145    0.3404    0.0000 H       1  UNL1        0.0268
     40 H          10.2479   -0.4667    0.0000 H       1  UNL1        0.0269
     41 H          10.2479    0.3627    0.0000 H       1  UNL1        0.0269
     42 H           7.6252   -2.6739    0.0000 H       1  UNL1        0.0310
     43 H           8.0164   -1.9780    0.0000 H       1  UNL1        0.0310
     44 H           8.8772    1.4480    0.0000 H       1  UNL1        0.0235
     45 H           8.2572    2.0680    0.0000 H       1  UNL1        0.0235
     46 H           7.6372    1.4480    0.0000 H       1  UNL1        0.0235
     47 H           9.7067    2.2926    0.0000 H       1  UNL1        0.0500
     48 H           5.0965   -0.0281    0.0000 H       1  UNL1        0.0274
     49 H           4.2984   -0.0127    0.0000 H       1  UNL1        0.0274
     50 H           6.5116   -3.2412    0.0000 H       1  UNL1        0.0572
     51 H           6.2428   -0.0636    0.0000 H       1  UNL1        0.0238
     52 H           5.6276    0.5611    0.0000 H       1  UNL1        0.0238
     53 H           5.0028   -0.0541    0.0000 H       1  UNL1        0.0238
     54 H           4.2744   -3.1261    0.0000 H       1  UNL1        0.0325
     55 H           5.0726   -3.1230    0.0000 H       1  UNL1        0.0325
     56 H           3.5358   -0.4374    0.0000 H       1  UNL1        0.0281
     57 H           3.1288   -1.1241    0.0000 H       1  UNL1        0.0281
     58 H           3.7308   -2.7277    0.0000 H       1  UNL1        0.0465
     59 H           9.3077    2.8616    0.0000 H       1  UNL1        0.0248
     60 H           8.4322    2.9090    0.0000 H       1  UNL1        0.0248
     61 H           8.3848    2.0335    0.0000 H       1  UNL1        0.0248
     62 H          10.6989    0.7511    0.0000 H       1  UNL1        0.0429
     63 H          11.5745    0.7037    0.0000 H       1  UNL1        0.0429
     64 H          11.6219    1.5792    0.0000 H       1  UNL1        0.0429
     65 H           2.2402   -3.6019    0.0000 H       1  UNL1        0.0391
     66 H           2.8578   -4.2243    0.0000 H       1  UNL1        0.0391
     67 H           3.4802   -3.6067    0.0000 H       1  UNL1        0.0391
     68 H           2.3121   -1.5652    0.0000 H       1  UNL1        0.0391
     69 H           1.4643   -1.7889    0.0000 H       1  UNL1        0.0391
     70 H           1.6879   -2.6367    0.0000 H       1  UNL1        0.0391
     71 H          11.9096    2.4596    0.0000 H       1  UNL1        0.0323
     72 H          12.3884    3.1941    0.0000 H       1  UNL1        0.0323
     73 H          11.6539    3.6729    0.0000 H       1  UNL1        0.0323
@<TRIPOS>BOND
     1     1    26    2
     2    17     2    1
     3     2    25    1
     4     2    26   am
     5    23     3    1
     6     3    27    1
     7     3    28    1
     8     4     5    1
     9     4     8    1
    10     4    10    1
    11     4    15    1
    12     5     6    1
    13     5    11    1
    14     5    30    1
    15     6     7    1
    16     6    14    1
    17     6    31    1
    18     7     9    1
    19     7    12    1
    20     7    32    1
    21     8    13    1
    22     8    17    1
    23     8    33    1
    24     9    16    1
    25     9    18    1
    26     9    20    1
    27    10    12    1
    28    10    34    1
    29    10    35    1
    30    11    13    1
    31    11    36    1
    32    11    37    1
    33    12    38    1
    34    12    39    1
    35    13    40    1
    36    13    41    1
    37    14    19    1
    38    14    42    1
    39    14    43    1
    40    15    44    1
    41    15    45    1
    42    15    46    1
    43    16    19    2
    44    16    21    1
    45    17    24    1
    46    17    47    1
    47    18    22    1
    48    18    48    1
    49    18    49    1
    50    19    50    1
    51    20    51    1
    52    20    52    1
    53    20    53    1
    54    21    23    1
    55    21    54    1
    56    21    55    1
    57    22    23    1
    58    22    56    1
    59    22    57    1
    60    23    58    1
    61    24    59    1
    62    24    60    1
    63    24    61    1
    64    25    62    1
    65    25    63    1
    66    25    64    1
    67    26    29    1
    68    27    68    1
    69    27    69    1
    70    27    70    1
    71    28    65    1
    72    28    66    1
    73    28    67    1
    74    29    71    1
    75    29    72    1
    76    29    73    1
