@<TRIPOS>MOLECULE
IMPHY004461
 61 63 0 0 0
SMALL
GASTEIGER

@<TRIPOS>ATOM
      1 O           8.9282   -3.6550    0.0000 O.3     1  UNL1       -0.4913
      2 O           5.4641   -3.6550    0.0000 O.3     1  UNL1       -0.4913
      3 O           5.4641   -0.6550    0.0000 O.2     1  UNL1       -0.2702
      4 O           7.1962   -4.6550    0.0000 O.3     1  UNL1       -0.5009
      5 O          11.5263   -0.1550    0.0000 O.3     1  UNL1       -0.4914
      6 O           2.0000    4.3450    0.0000 O.3     1  UNL1       -0.5068
      7 O          11.5263   -2.1550    0.0000 O.3     1  UNL1       -0.5033
      8 N           6.3301    0.8450    0.0000 N.am    1  UNL1       -0.3110
      9 C           5.4641    2.3450    0.0000 C.3     1  UNL1       -0.0120
     10 C           5.4641    1.3450    0.0000 C.3     1  UNL1        0.0159
     11 C           7.1962   -0.6550    0.0000 C.2     1  UNL1        0.0446
     12 C           7.1962   -1.6550    0.0000 C.ar    1  UNL1       -0.0058
     13 C           4.5981    2.8450    0.0000 C.ar    1  UNL1       -0.0457
     14 C           6.3301   -0.1550    0.0000 C.2     1  UNL1        0.2447
     15 C           8.0622   -0.1550    0.0000 C.2     1  UNL1       -0.0418
     16 C           6.3301   -2.1550    0.0000 C.ar    1  UNL1       -0.0082
     17 C           8.0622   -2.1550    0.0000 C.ar    1  UNL1       -0.0082
     18 C           8.9282   -0.6550    0.0000 C.ar    1  UNL1       -0.0206
     19 C           8.0622   -3.1550    0.0000 C.ar    1  UNL1        0.1656
     20 C           6.3301   -3.1550    0.0000 C.ar    1  UNL1        0.1656
     21 C           4.5981    3.8450    0.0000 C.ar    1  UNL1       -0.0551
     22 C           3.7320    2.3450    0.0000 C.ar    1  UNL1       -0.0551
     23 C           7.1962   -3.6550    0.0000 C.ar    1  UNL1        0.2010
     24 C           9.7942   -0.1550    0.0000 C.ar    1  UNL1       -0.0091
     25 C           8.9282   -1.6550    0.0000 C.ar    1  UNL1       -0.0509
     26 C           3.7320    4.3450    0.0000 C.ar    1  UNL1       -0.0199
     27 C           2.8660    2.8450    0.0000 C.ar    1  UNL1       -0.0199
     28 C          10.6603   -0.6550    0.0000 C.ar    1  UNL1        0.1618
     29 C           2.8660    3.8450    0.0000 C.ar    1  UNL1        0.1169
     30 C           9.7942   -2.1550    0.0000 C.ar    1  UNL1       -0.0160
     31 C          10.6603   -1.6550    0.0000 C.ar    1  UNL1        0.1585
     32 C           9.7942   -3.1550    0.0000 C.3     1  UNL1        0.0790
     33 C           4.5981   -3.1550    0.0000 C.3     1  UNL1        0.0790
     34 C          12.3923   -0.6550    0.0000 C.3     1  UNL1        0.0790
     35 H           6.0747    2.2373    0.0000 H       1  UNL1        0.0328
     36 H           5.6762    2.9276    0.0000 H       1  UNL1        0.0328
     37 H           4.8535    1.4527    0.0000 H       1  UNL1        0.0465
     38 H           5.2520    0.7624    0.0000 H       1  UNL1        0.0465
     39 H           6.8671    1.1550    0.0000 H       1  UNL1        0.1490
     40 H           8.0622    0.4650    0.0000 H       1  UNL1        0.0631
     41 H           5.7932   -1.8450    0.0000 H       1  UNL1        0.0661
     42 H           8.5991   -1.8450    0.0000 H       1  UNL1        0.0661
     43 H           5.1350    4.1550    0.0000 H       1  UNL1        0.0621
     44 H           3.7320    1.7250    0.0000 H       1  UNL1        0.0621
     45 H           9.7942    0.4650    0.0000 H       1  UNL1        0.0661
     46 H           8.3913   -1.9650    0.0000 H       1  UNL1        0.0625
     47 H           3.7320    4.9650    0.0000 H       1  UNL1        0.0654
     48 H           2.3291    2.5350    0.0000 H       1  UNL1        0.0654
     49 H           9.7942   -2.7750    0.0000 H       1  UNL1        0.0655
     50 H           6.6592   -4.9650    0.0000 H       1  UNL1        0.2924
     51 H          10.1042   -3.6919    0.0000 H       1  UNL1        0.0660
     52 H          10.3312   -2.8450    0.0000 H       1  UNL1        0.0660
     53 H           9.4842   -2.6181    0.0000 H       1  UNL1        0.0660
     54 H           4.9081   -2.6181    0.0000 H       1  UNL1        0.0660
     55 H           4.0611   -2.8450    0.0000 H       1  UNL1        0.0660
     56 H           4.2881   -3.6919    0.0000 H       1  UNL1        0.0660
     57 H           2.0000    4.9650    0.0000 H       1  UNL1        0.2921
     58 H          11.5263   -2.7750    0.0000 H       1  UNL1        0.2923
     59 H          12.0823   -1.1919    0.0000 H       1  UNL1        0.0660
     60 H          12.9292   -0.9650    0.0000 H       1  UNL1        0.0660
     61 H          12.7023   -0.1181    0.0000 H       1  UNL1        0.0660
@<TRIPOS>BOND
     1     1    19    1
     2     1    32    1
     3     2    20    1
     4     2    33    1
     5     3    14    2
     6     4    23    1
     7     4    50    1
     8     5    28    1
     9     5    34    1
    10     6    29    1
    11     6    57    1
    12     7    31    1
    13     7    58    1
    14     8    10    1
    15     8    14   am
    16     8    39    1
    17     9    10    1
    18     9    13    1
    19     9    35    1
    20     9    36    1
    21    10    37    1
    22    10    38    1
    23    11    12    1
    24    11    14    1
    25    11    15    2
    26    12    16   ar
    27    12    17   ar
    28    13    21   ar
    29    13    22   ar
    30    15    18    1
    31    15    40    1
    32    16    20   ar
    33    16    41    1
    34    17    19   ar
    35    17    42    1
    36    18    24   ar
    37    18    25   ar
    38    19    23   ar
    39    20    23   ar
    40    21    26   ar
    41    21    43    1
    42    22    27   ar
    43    22    44    1
    44    24    28   ar
    45    24    45    1
    46    25    30   ar
    47    25    46    1
    48    26    29   ar
    49    26    47    1
    50    27    29   ar
    51    27    48    1
    52    28    31   ar
    53    30    31   ar
    54    30    49    1
    55    32    51    1
    56    32    52    1
    57    32    53    1
    58    33    54    1
    59    33    55    1
    60    33    56    1
    61    34    59    1
    62    34    60    1
    63    34    61    1
