@<TRIPOS>MOLECULE
IMPHY001665
 35 37 0 0 0
SMALL
GASTEIGER

@<TRIPOS>ATOM
      1 O           6.0682   -1.4827    0.0000 O.3     1  UNL1       -0.4864
      2 O           6.0682    1.5173    0.0000 O.2     1  UNL1       -0.2867
      3 O           2.5381   -1.5068    0.0000 O.3     1  UNL1       -0.5066
      4 O          11.2644   -1.4827    0.0000 O.3     1  UNL1       -0.4951
      5 C           6.9343    0.0173    0.0000 C.2     1  UNL1        0.0375
      6 C           5.2022    0.0173    0.0000 C.ar    1  UNL1        0.0639
      7 C           6.9343   -0.9827    0.0000 C.3     1  UNL1        0.1182
      8 C           5.2022   -0.9827    0.0000 C.ar    1  UNL1        0.1352
      9 C           6.0682    0.5173    0.0000 C.2     1  UNL1        0.1959
     10 C           7.8003    0.5173    0.0000 C.2     1  UNL1       -0.0445
     11 C           8.6663    0.0173    0.0000 C.ar    1  UNL1       -0.0243
     12 C           4.3083    0.5520    0.0000 C.ar    1  UNL1       -0.0440
     13 C           4.3083   -1.5173    0.0000 C.ar    1  UNL1        0.0223
     14 C           3.4022   -1.0035    0.0000 C.ar    1  UNL1        0.1204
     15 C           3.4022    0.0381    0.0000 C.ar    1  UNL1       -0.0193
     16 C           8.6663   -0.9827    0.0000 C.ar    1  UNL1       -0.0511
     17 C           9.5323    0.5173    0.0000 C.ar    1  UNL1       -0.0511
     18 C           9.5323   -1.4827    0.0000 C.ar    1  UNL1       -0.0194
     19 C          10.3984    0.0173    0.0000 C.ar    1  UNL1       -0.0194
     20 C          10.3984   -0.9827    0.0000 C.ar    1  UNL1        0.1201
     21 C          12.1304   -0.9827    0.0000 C.3     1  UNL1        0.0788
     22 H           7.1463   -1.5653    0.0000 H       1  UNL1        0.0749
     23 H           7.5449   -0.8750    0.0000 H       1  UNL1        0.0749
     24 H           7.8003    1.1373    0.0000 H       1  UNL1        0.0628
     25 H           4.3154    1.1720    0.0000 H       1  UNL1        0.0627
     26 H           4.3154   -2.1373    0.0000 H       1  UNL1        0.0691
     27 H           2.8665    0.3502    0.0000 H       1  UNL1        0.0654
     28 H           8.1294   -1.2927    0.0000 H       1  UNL1        0.0625
     29 H           9.5323    1.1373    0.0000 H       1  UNL1        0.0625
     30 H           9.5323   -2.1027    0.0000 H       1  UNL1        0.0654
     31 H          10.9353    0.3273    0.0000 H       1  UNL1        0.0654
     32 H           2.0000   -1.1989    0.0000 H       1  UNL1        0.2921
     33 H          12.4404   -1.5196    0.0000 H       1  UNL1        0.0660
     34 H          12.6674   -0.6727    0.0000 H       1  UNL1        0.0660
     35 H          11.8204   -0.4457    0.0000 H       1  UNL1        0.0660
@<TRIPOS>BOND
     1     1     7    1
     2     1     8    1
     3     2     9    2
     4     3    14    1
     5     3    32    1
     6     4    20    1
     7     4    21    1
     8     5     7    1
     9     5     9    1
    10     5    10    2
    11     6     8   ar
    12     6     9    1
    13     6    12   ar
    14     7    22    1
    15     7    23    1
    16     8    13   ar
    17    10    11    1
    18    10    24    1
    19    11    16   ar
    20    11    17   ar
    21    12    15   ar
    22    12    25    1
    23    13    14   ar
    24    13    26    1
    25    14    15   ar
    26    15    27    1
    27    16    18   ar
    28    16    28    1
    29    17    19   ar
    30    17    29    1
    31    18    20   ar
    32    18    30    1
    33    19    20   ar
    34    19    31    1
    35    21    33    1
    36    21    34    1
    37    21    35    1
