@<TRIPOS>MOLECULE
IMPHY013340
 150 151 0 0 0
SMALL
GASTEIGER

@<TRIPOS>ATOM
      1 O           7.7331   -4.8450    0.0000 O.3     1  UNL1       -0.3405
      2 O           5.1350   -2.3450    0.0000 O.3     1  UNL1       -0.3405
      3 O           6.0010   -3.8450    0.0000 O.3     1  UNL1       -0.3460
      4 O           9.4651   -4.8450    0.0000 O.3     1  UNL1       -0.3449
      5 O           6.0010   -6.8450    0.0000 O.3     1  UNL1       -0.3865
      6 O           7.7331   -7.8450    0.0000 O.3     1  UNL1       -0.3864
      7 O           9.4651   -6.8450    0.0000 O.3     1  UNL1       -0.3841
      8 O           4.2690   -4.8450    0.0000 O.3     1  UNL1       -0.3841
      9 O           2.5369   -3.8450    0.0000 O.3     1  UNL1       -0.3864
     10 O           2.5369   -1.8450    0.0000 O.3     1  UNL1       -0.3865
     11 O           5.1350   -0.3450    0.0000 O.3     1  UNL1       -0.3924
     12 O          10.3312   -2.3450    0.0000 O.3     1  UNL1       -0.4556
     13 O          12.0632   -3.3450    0.0000 O.3     1  UNL1       -0.4608
     14 O          12.0632   -2.3450    0.0000 O.2     1  UNL1       -0.2508
     15 O          12.9292   -4.8450    0.0000 O.2     1  UNL1       -0.2509
     16 C           6.8671   -5.3450    0.0000 C.3     1  UNL1        0.1134
     17 C           6.8671   -6.3450    0.0000 C.3     1  UNL1        0.1119
     18 C           7.7331   -6.8450    0.0000 C.3     1  UNL1        0.1141
     19 C           8.5991   -6.3450    0.0000 C.3     1  UNL1        0.1341
     20 C           4.2690   -3.8450    0.0000 C.3     1  UNL1        0.1341
     21 C           5.1350   -3.3450    0.0000 C.3     1  UNL1        0.1880
     22 C           3.4030   -3.3450    0.0000 C.3     1  UNL1        0.1141
     23 C           8.5991   -5.3450    0.0000 C.3     1  UNL1        0.1881
     24 C           3.4030   -2.3450    0.0000 C.3     1  UNL1        0.1119
     25 C           4.2690   -1.8450    0.0000 C.3     1  UNL1        0.1130
     26 C           6.0010   -4.8450    0.0000 C.3     1  UNL1        0.0796
     27 C           4.2690   -0.8450    0.0000 C.3     1  UNL1        0.0730
     28 C           9.4651   -3.8450    0.0000 C.3     1  UNL1        0.0910
     29 C          10.3312   -3.3450    0.0000 C.3     1  UNL1        0.1601
     30 C          11.1972   -3.8450    0.0000 C.3     1  UNL1        0.1315
     31 C          19.8574   -3.8450    0.0000 C.3     1  UNL1       -0.0531
     32 C          18.9914   -3.3450    0.0000 C.3     1  UNL1       -0.0531
     33 C          20.7235   -3.3450    0.0000 C.3     1  UNL1       -0.0531
     34 C          18.1254   -3.8450    0.0000 C.3     1  UNL1       -0.0531
     35 C          21.5895   -3.8450    0.0000 C.3     1  UNL1       -0.0531
     36 C          17.2594   -3.3450    0.0000 C.3     1  UNL1       -0.0531
     37 C          22.4555   -3.3450    0.0000 C.3     1  UNL1       -0.0531
     38 C          16.3933   -3.8450    0.0000 C.3     1  UNL1       -0.0530
     39 C          11.1972   -1.8450    0.0000 C.2     1  UNL1        0.3075
     40 C          23.3215   -3.8450    0.0000 C.3     1  UNL1       -0.0531
     41 C          11.1972   -0.8450    0.0000 C.3     1  UNL1        0.0450
     42 C          15.5273   -3.3450    0.0000 C.3     1  UNL1       -0.0526
     43 C          12.0632   -0.3450    0.0000 C.3     1  UNL1       -0.0430
     44 C          12.0632    0.6550    0.0000 C.3     1  UNL1       -0.0526
     45 C          12.9292    1.1550    0.0000 C.3     1  UNL1       -0.0530
     46 C          12.9292    2.1550    0.0000 C.3     1  UNL1       -0.0531
     47 C          13.7953    2.6550    0.0000 C.3     1  UNL1       -0.0531
     48 C          14.6613   -3.8450    0.0000 C.3     1  UNL1       -0.0430
     49 C          13.7953    3.6550    0.0000 C.3     1  UNL1       -0.0531
     50 C          24.1876   -3.3450    0.0000 C.3     1  UNL1       -0.0531
     51 C          14.6613    4.1550    0.0000 C.3     1  UNL1       -0.0531
     52 C          13.7953   -3.3450    0.0000 C.3     1  UNL1        0.0449
     53 C          25.0536   -3.8450    0.0000 C.3     1  UNL1       -0.0531
     54 C          12.9292   -3.8450    0.0000 C.2     1  UNL1        0.3072
     55 C          14.6613    5.1550    0.0000 C.3     1  UNL1       -0.0531
     56 C          15.5273    5.6550    0.0000 C.3     1  UNL1       -0.0531
     57 C          25.9196   -3.3450    0.0000 C.3     1  UNL1       -0.0533
     58 C          15.5273    6.6550    0.0000 C.3     1  UNL1       -0.0533
     59 C          26.7856   -3.8450    0.0000 C.3     1  UNL1       -0.0559
     60 C          16.3933    7.1550    0.0000 C.3     1  UNL1       -0.0559
     61 C          27.6517   -3.3450    0.0000 C.3     1  UNL1       -0.0653
     62 C          16.3933    8.1550    0.0000 C.3     1  UNL1       -0.0653
     63 H           6.8671   -4.7250    0.0000 H       1  UNL1        0.0647
     64 H           6.8671   -6.9650    0.0000 H       1  UNL1        0.0647
     65 H           7.1962   -7.1550    0.0000 H       1  UNL1        0.0648
     66 H           8.5991   -6.9650    0.0000 H       1  UNL1        0.0671
     67 H           3.7320   -4.1550    0.0000 H       1  UNL1        0.0671
     68 H           5.1350   -3.9650    0.0000 H       1  UNL1        0.0937
     69 H           2.8660   -3.0350    0.0000 H       1  UNL1        0.0648
     70 H           8.5991   -4.7250    0.0000 H       1  UNL1        0.0937
     71 H           3.4030   -1.7250    0.0000 H       1  UNL1        0.0647
     72 H           4.8059   -1.5350    0.0000 H       1  UNL1        0.0647
     73 H           5.3905   -4.7373    0.0000 H       1  UNL1        0.0587
     74 H           5.7890   -5.4276    0.0000 H       1  UNL1        0.0587
     75 H           4.0569   -0.2624    0.0000 H       1  UNL1        0.0584
     76 H           3.6584   -0.9527    0.0000 H       1  UNL1        0.0584
     77 H           5.4641   -6.5350    0.0000 H       1  UNL1        0.2100
     78 H           7.1962   -8.1550    0.0000 H       1  UNL1        0.2100
     79 H          10.0021   -6.5350    0.0000 H       1  UNL1        0.2101
     80 H           3.7320   -5.1550    0.0000 H       1  UNL1        0.2101
     81 H           2.0000   -3.5350    0.0000 H       1  UNL1        0.2100
     82 H           2.5369   -1.2250    0.0000 H       1  UNL1        0.2100
     83 H           9.2531   -3.2624    0.0000 H       1  UNL1        0.0599
     84 H           8.8546   -3.9527    0.0000 H       1  UNL1        0.0599
     85 H           9.7942   -3.0350    0.0000 H       1  UNL1        0.0792
     86 H           5.1350    0.2750    0.0000 H       1  UNL1        0.2095
     87 H          10.7987   -4.3200    0.0000 H       1  UNL1        0.0736
     88 H          11.5957   -4.3200    0.0000 H       1  UNL1        0.0736
     89 H          19.4589   -4.3200    0.0000 H       1  UNL1        0.0265
     90 H          20.2560   -4.3200    0.0000 H       1  UNL1        0.0265
     91 H          19.3899   -2.8700    0.0000 H       1  UNL1        0.0265
     92 H          18.5929   -2.8700    0.0000 H       1  UNL1        0.0265
     93 H          21.1220   -2.8700    0.0000 H       1  UNL1        0.0265
     94 H          20.3249   -2.8700    0.0000 H       1  UNL1        0.0265
     95 H          17.7269   -4.3200    0.0000 H       1  UNL1        0.0265
     96 H          18.5239   -4.3200    0.0000 H       1  UNL1        0.0265
     97 H          21.1910   -4.3200    0.0000 H       1  UNL1        0.0265
     98 H          21.9880   -4.3200    0.0000 H       1  UNL1        0.0265
     99 H          17.6579   -2.8700    0.0000 H       1  UNL1        0.0265
    100 H          16.8608   -2.8700    0.0000 H       1  UNL1        0.0265
    101 H          22.8540   -2.8700    0.0000 H       1  UNL1        0.0265
    102 H          22.0570   -2.8700    0.0000 H       1  UNL1        0.0265
    103 H          15.9948   -4.3200    0.0000 H       1  UNL1        0.0265
    104 H          16.7919   -4.3200    0.0000 H       1  UNL1        0.0265
    105 H          22.9230   -4.3200    0.0000 H       1  UNL1        0.0265
    106 H          23.7201   -4.3200    0.0000 H       1  UNL1        0.0265
    107 H          15.9258   -2.8700    0.0000 H       1  UNL1        0.0265
    108 H          15.1288   -2.8700    0.0000 H       1  UNL1        0.0265
    109 H          10.9851   -0.2624    0.0000 H       1  UNL1        0.0377
    110 H          10.5866   -0.9527    0.0000 H       1  UNL1        0.0377
    111 H          11.8512    1.2376    0.0000 H       1  UNL1        0.0265
    112 H          11.4526    0.5473    0.0000 H       1  UNL1        0.0265
    113 H          12.2753   -0.9276    0.0000 H       1  UNL1        0.0270
    114 H          12.6738   -0.2373    0.0000 H       1  UNL1        0.0270
    115 H          13.1413    0.5724    0.0000 H       1  UNL1        0.0265
    116 H          13.5398    1.2627    0.0000 H       1  UNL1        0.0265
    117 H          12.7172    2.7376    0.0000 H       1  UNL1        0.0265
    118 H          12.3187    2.0473    0.0000 H       1  UNL1        0.0265
    119 H          14.0073    2.0724    0.0000 H       1  UNL1        0.0265
    120 H          14.4058    2.7627    0.0000 H       1  UNL1        0.0265
    121 H          14.2628   -4.3200    0.0000 H       1  UNL1        0.0270
    122 H          15.0598   -4.3200    0.0000 H       1  UNL1        0.0270
    123 H          13.5832    4.2376    0.0000 H       1  UNL1        0.0265
    124 H          13.1847    3.5473    0.0000 H       1  UNL1        0.0265
    125 H          24.5861   -2.8700    0.0000 H       1  UNL1        0.0265
    126 H          23.7890   -2.8700    0.0000 H       1  UNL1        0.0265
    127 H          14.8733    3.5724    0.0000 H       1  UNL1        0.0265
    128 H          15.2719    4.2627    0.0000 H       1  UNL1        0.0265
    129 H          14.1938   -2.8700    0.0000 H       1  UNL1        0.0377
    130 H          13.3967   -2.8700    0.0000 H       1  UNL1        0.0377
    131 H          24.6551   -4.3200    0.0000 H       1  UNL1        0.0265
    132 H          25.4521   -4.3200    0.0000 H       1  UNL1        0.0265
    133 H          14.4492    5.7376    0.0000 H       1  UNL1        0.0265
    134 H          14.0507    5.0473    0.0000 H       1  UNL1        0.0265
    135 H          15.7394    5.0724    0.0000 H       1  UNL1        0.0265
    136 H          16.1379    5.7627    0.0000 H       1  UNL1        0.0265
    137 H          26.3182   -2.8700    0.0000 H       1  UNL1        0.0265
    138 H          25.5211   -2.8700    0.0000 H       1  UNL1        0.0265
    139 H          15.3153    7.2376    0.0000 H       1  UNL1        0.0265
    140 H          14.9167    6.5473    0.0000 H       1  UNL1        0.0265
    141 H          26.3871   -4.3200    0.0000 H       1  UNL1        0.0263
    142 H          27.1842   -4.3200    0.0000 H       1  UNL1        0.0263
    143 H          16.6054    6.5724    0.0000 H       1  UNL1        0.0263
    144 H          17.0039    7.2627    0.0000 H       1  UNL1        0.0263
    145 H          27.9617   -3.8819    0.0000 H       1  UNL1        0.0230
    146 H          28.1886   -3.0350    0.0000 H       1  UNL1        0.0230
    147 H          27.3417   -2.8081    0.0000 H       1  UNL1        0.0230
    148 H          17.0133    8.1550    0.0000 H       1  UNL1        0.0230
    149 H          16.3933    8.7750    0.0000 H       1  UNL1        0.0230
    150 H          15.7733    8.1550    0.0000 H       1  UNL1        0.0230
@<TRIPOS>BOND
     1     1    16    1
     2     1    23    1
     3     2    21    1
     4     2    25    1
     5    21     3    1
     6     3    26    1
     7    23     4    1
     8     4    28    1
     9    17     5    1
    10     5    77    1
    11    18     6    1
    12     6    78    1
    13    19     7    1
    14     7    79    1
    15    20     8    1
    16     8    80    1
    17    22     9    1
    18     9    81    1
    19    24    10    1
    20    10    82    1
    21    11    27    1
    22    11    86    1
    23    29    12    1
    24    12    39    1
    25    13    30    1
    26    13    54    1
    27    14    39    2
    28    15    54    2
    29    16    17    1
    30    16    26    1
    31    16    63    1
    32    17    18    1
    33    17    64    1
    34    18    19    1
    35    18    65    1
    36    19    23    1
    37    19    66    1
    38    20    21    1
    39    20    22    1
    40    20    67    1
    41    21    68    1
    42    22    24    1
    43    22    69    1
    44    23    70    1
    45    24    25    1
    46    24    71    1
    47    25    27    1
    48    25    72    1
    49    26    73    1
    50    26    74    1
    51    27    75    1
    52    27    76    1
    53    28    29    1
    54    28    83    1
    55    28    84    1
    56    29    30    1
    57    29    85    1
    58    30    87    1
    59    30    88    1
    60    31    32    1
    61    31    33    1
    62    31    89    1
    63    31    90    1
    64    32    34    1
    65    32    91    1
    66    32    92    1
    67    33    35    1
    68    33    93    1
    69    33    94    1
    70    34    36    1
    71    34    95    1
    72    34    96    1
    73    35    37    1
    74    35    97    1
    75    35    98    1
    76    36    38    1
    77    36    99    1
    78    36   100    1
    79    37    40    1
    80    37   101    1
    81    37   102    1
    82    38    42    1
    83    38   103    1
    84    38   104    1
    85    39    41    1
    86    40    50    1
    87    40   105    1
    88    40   106    1
    89    41    43    1
    90    41   109    1
    91    41   110    1
    92    42    48    1
    93    42   107    1
    94    42   108    1
    95    43    44    1
    96    43   113    1
    97    43   114    1
    98    44    45    1
    99    44   111    1
   100    44   112    1
   101    45    46    1
   102    45   115    1
   103    45   116    1
   104    46    47    1
   105    46   117    1
   106    46   118    1
   107    47    49    1
   108    47   119    1
   109    47   120    1
   110    48    52    1
   111    48   121    1
   112    48   122    1
   113    49    51    1
   114    49   123    1
   115    49   124    1
   116    50    53    1
   117    50   125    1
   118    50   126    1
   119    51    55    1
   120    51   127    1
   121    51   128    1
   122    52    54    1
   123    52   129    1
   124    52   130    1
   125    53    57    1
   126    53   131    1
   127    53   132    1
   128    55    56    1
   129    55   133    1
   130    55   134    1
   131    56    58    1
   132    56   135    1
   133    56   136    1
   134    57    59    1
   135    57   137    1
   136    57   138    1
   137    58    60    1
   138    58   139    1
   139    58   140    1
   140    59    61    1
   141    59   141    1
   142    59   142    1
   143    60    62    1
   144    60   143    1
   145    60   144    1
   146    61   145    1
   147    61   146    1
   148    61   147    1
   149    62   148    1
   150    62   149    1
   151    62   150    1
