@<TRIPOS>MOLECULE
IMPHY015938
 30 30 0 0 0
SMALL
GASTEIGER

@<TRIPOS>ATOM
      1 O           4.2690    2.3450    0.0000 O.3     1  UNL1       -0.3888
      2 O           2.5369   -1.6550    0.0000 O.3     1  UNL1       -0.3875
      3 C           4.2690    0.3450    0.0000 C.3     1  UNL1       -0.0066
      4 C           4.2690    1.3450    0.0000 C.3     1  UNL1        0.0637
      5 C           3.4030   -0.1550    0.0000 C.3     1  UNL1       -0.0173
      6 C           5.1350   -0.1550    0.0000 C.3     1  UNL1       -0.0289
      7 C           3.4030   -1.1550    0.0000 C.3     1  UNL1        0.0764
      8 C           4.2690   -1.6550    0.0000 C.2     1  UNL1       -0.0484
      9 C           5.1350   -1.1550    0.0000 C.2     1  UNL1       -0.0823
     10 C           5.2690    1.3450    0.0000 C.3     1  UNL1       -0.0361
     11 C           3.2690    1.3450    0.0000 C.3     1  UNL1       -0.0361
     12 C           4.2690   -2.6550    0.0000 C.3     1  UNL1       -0.0414
     13 H           4.8059    0.6550    0.0000 H       1  UNL1        0.0332
     14 H           3.1909    0.4276    0.0000 H       1  UNL1        0.0297
     15 H           2.7924   -0.2627    0.0000 H       1  UNL1        0.0297
     16 H           5.7456   -0.2627    0.0000 H       1  UNL1        0.0311
     17 H           5.3471    0.4276    0.0000 H       1  UNL1        0.0311
     18 H           3.4030   -1.7750    0.0000 H       1  UNL1        0.0640
     19 H           5.6720   -1.4650    0.0000 H       1  UNL1        0.0572
     20 H           5.2690    0.7250    0.0000 H       1  UNL1        0.0257
     21 H           5.8890    1.3450    0.0000 H       1  UNL1        0.0257
     22 H           5.2690    1.9650    0.0000 H       1  UNL1        0.0257
     23 H           3.2690    1.9650    0.0000 H       1  UNL1        0.0257
     24 H           2.6490    1.3450    0.0000 H       1  UNL1        0.0257
     25 H           3.2690    0.7250    0.0000 H       1  UNL1        0.0257
     26 H           4.8059    2.6550    0.0000 H       1  UNL1        0.2101
     27 H           3.6490   -2.6550    0.0000 H       1  UNL1        0.0275
     28 H           4.2690   -3.2750    0.0000 H       1  UNL1        0.0275
     29 H           4.8890   -2.6550    0.0000 H       1  UNL1        0.0275
     30 H           2.0000   -1.3450    0.0000 H       1  UNL1        0.2102
@<TRIPOS>BOND
     1     1     4    1
     2     1    26    1
     3     2     7    1
     4     2    30    1
     5     3     4    1
     6     3     5    1
     7     3     6    1
     8     3    13    1
     9     4    10    1
    10     4    11    1
    11     5     7    1
    12     5    14    1
    13     5    15    1
    14     6     9    1
    15     6    16    1
    16     6    17    1
    17     7     8    1
    18     7    18    1
    19     8     9    2
    20     8    12    1
    21     9    19    1
    22    10    20    1
    23    10    21    1
    24    10    22    1
    25    11    23    1
    26    11    24    1
    27    11    25    1
    28    12    27    1
    29    12    28    1
    30    12    29    1
