@<TRIPOS>MOLECULE
IMPHY009312
 78 82 0 0 0
SMALL
GASTEIGER

@<TRIPOS>ATOM
      1 O           2.5357   -2.5933    0.0000 O.3     1  UNL1       -0.3912
      2 O          11.4608    0.4932    0.0000 O.3     1  UNL1       -0.4800
      3 O          11.5367    2.6034    0.0000 O.2     1  UNL1       -0.2968
      4 O          10.6064   -1.0134    0.0000 O.2     1  UNL1       -0.2500
      5 C           7.0628   -1.0410    0.0000 C.3     1  UNL1       -0.0159
      6 C           5.2868   -1.0478    0.0000 C.3     1  UNL1       -0.0218
      7 C           6.1968   -0.5410    0.0000 C.3     1  UNL1       -0.0107
      8 C           5.2787   -2.0894    0.0000 C.3     1  UNL1       -0.0276
      9 C           7.9288   -0.5410    0.0000 C.3     1  UNL1       -0.0011
     10 C           7.0789   -2.0825    0.0000 C.3     1  UNL1       -0.0460
     11 C           4.3433   -2.6391    0.0000 C.3     1  UNL1       -0.0056
     12 C           6.1808   -2.6102    0.0000 C.3     1  UNL1       -0.0486
     13 C           4.3599   -0.4837    0.0000 C.3     1  UNL1       -0.0444
     14 C           7.9288    0.4590    0.0000 C.2     1  UNL1       -0.0409
     15 C           8.8228   -1.0756    0.0000 C.3     1  UNL1       -0.0418
     16 C           3.4037   -2.0966    0.0000 C.3     1  UNL1        0.0606
     17 C           3.4120   -1.0117    0.0000 C.3     1  UNL1       -0.0258
     18 C           7.7056   -1.8070    0.0000 C.3     1  UNL1       -0.0582
     19 C           6.1968    0.4590    0.0000 C.2     1  UNL1       -0.0796
     20 C           5.2945   -0.0478    0.0000 C.3     1  UNL1       -0.0587
     21 C           9.7288    0.4799    0.0000 C.3     1  UNL1        0.0957
     22 C           8.8228    0.9937    0.0000 C.2     1  UNL1       -0.0479
     23 C           8.2709   -1.4806    0.0000 C.3     1  UNL1       -0.0550
     24 C           9.7288   -0.5618    0.0000 C.3     1  UNL1       -0.0322
     25 C           7.0628    0.9590    0.0000 C.2     1  UNL1       -0.0617
     26 C           3.8467   -3.5071    0.0000 C.3     1  UNL1       -0.0572
     27 C           4.8466   -3.5032    0.0000 C.3     1  UNL1       -0.0572
     28 C           8.7977    2.0784    0.0000 C.3     1  UNL1       -0.0182
     29 C          10.6726    1.0151    0.0000 C.3     1  UNL1        0.0259
     30 C           9.7288    2.6353    0.0000 C.3     1  UNL1        0.0271
     31 C          10.6726    2.1001    0.0000 C.2     1  UNL1        0.1406
     32 C          10.5987   -0.0135    0.0000 C.2     1  UNL1        0.3154
     33 C          10.2188    3.5071    0.0000 C.3     1  UNL1       -0.0528
     34 C           9.2188    3.4955    0.0000 C.3     1  UNL1       -0.0528
     35 H           6.9329   -0.1160    0.0000 H       1  UNL1        0.0354
     36 H           5.2820   -2.9394    0.0000 H       1  UNL1        0.0312
     37 H           7.2969   -2.6629    0.0000 H       1  UNL1        0.0271
     38 H           7.6880   -1.9670    0.0000 H       1  UNL1        0.0271
     39 H           5.7835   -3.0862    0.0000 H       1  UNL1        0.0268
     40 H           6.5818   -3.0831    0.0000 H       1  UNL1        0.0268
     41 H           4.7681   -0.0171    0.0000 H       1  UNL1        0.0272
     42 H           3.9700   -0.0017    0.0000 H       1  UNL1        0.0272
     43 H           8.4182   -1.5454    0.0000 H       1  UNL1        0.0274
     44 H           9.2164   -1.5546    0.0000 H       1  UNL1        0.0274
     45 H           3.4025   -2.7166    0.0000 H       1  UNL1        0.0599
     46 H           7.2306   -2.2055    0.0000 H       1  UNL1        0.0236
     47 H           8.1041   -2.2820    0.0000 H       1  UNL1        0.0236
     48 H           8.1805   -1.4085    0.0000 H       1  UNL1        0.0236
     49 H           3.2075   -0.4264    0.0000 H       1  UNL1        0.0290
     50 H           2.8004   -1.1131    0.0000 H       1  UNL1        0.0290
     51 H           5.6598    0.7690    0.0000 H       1  UNL1        0.0575
     52 H           5.9145   -0.0526    0.0000 H       1  UNL1        0.0235
     53 H           5.2993    0.5721    0.0000 H       1  UNL1        0.0235
     54 H           4.6745   -0.0431    0.0000 H       1  UNL1        0.0235
     55 H           7.6884   -1.6927    0.0000 H       1  UNL1        0.0238
     56 H           8.4830   -2.0632    0.0000 H       1  UNL1        0.0238
     57 H           8.8535   -1.2685    0.0000 H       1  UNL1        0.0238
     58 H           9.9379   -1.1455    0.0000 H       1  UNL1        0.0279
     59 H          10.3397   -0.4557    0.0000 H       1  UNL1        0.0279
     60 H           7.0628    1.5790    0.0000 H       1  UNL1        0.0617
     61 H           3.3085   -3.1992    0.0000 H       1  UNL1        0.0236
     62 H           3.5387   -4.0452    0.0000 H       1  UNL1        0.0236
     63 H           4.3848   -3.8150    0.0000 H       1  UNL1        0.0236
     64 H           4.3109   -3.8153    0.0000 H       1  UNL1        0.0236
     65 H           5.1587   -4.0390    0.0000 H       1  UNL1        0.0236
     66 H           5.3824   -3.1912    0.0000 H       1  UNL1        0.0236
     67 H           8.5752    2.6571    0.0000 H       1  UNL1        0.0320
     68 H           8.1894    1.9582    0.0000 H       1  UNL1        0.0320
     69 H          10.8817    0.4314    0.0000 H       1  UNL1        0.0356
     70 H          11.2835    1.1212    0.0000 H       1  UNL1        0.0356
     71 H           2.0000   -2.2812    0.0000 H       1  UNL1        0.2098
     72 H           9.7522    3.8117    0.0000 H       1  UNL1        0.0239
     73 H          10.7593    3.2033    0.0000 H       1  UNL1        0.0239
     74 H           8.9027    4.0288    0.0000 H       1  UNL1        0.0239
     75 H           8.6855    3.1793    0.0000 H       1  UNL1        0.0239
     76 H          10.5226    4.0476    0.0000 H       1  UNL1        0.0239
     77 H           9.6783    3.8108    0.0000 H       1  UNL1        0.0239
     78 H          12.0001    0.1874    0.0000 H       1  UNL1        0.2951
@<TRIPOS>BOND
     1    16     1    1
     2     1    71    1
     3     2    32    1
     4     2    78    1
     5     3    31    2
     6     4    32    2
     7     5     7    1
     8     5     9    1
     9     5    10    1
    10     5    18    1
    11     6     7    1
    12     6     8    1
    13     6    13    1
    14     6    20    1
    15     7    19    1
    16     7    35    1
    17     8    11    1
    18     8    12    1
    19     8    36    1
    20     9    14    1
    21     9    15    1
    22     9    23    1
    23    10    12    1
    24    10    37    1
    25    10    38    1
    26    11    16    1
    27    11    26    1
    28    11    27    1
    29    12    39    1
    30    12    40    1
    31    13    17    1
    32    13    41    1
    33    13    42    1
    34    14    22    2
    35    14    25    1
    36    15    24    1
    37    15    43    1
    38    15    44    1
    39    16    17    1
    40    16    45    1
    41    17    49    1
    42    17    50    1
    43    18    46    1
    44    18    47    1
    45    18    48    1
    46    19    25    2
    47    19    51    1
    48    20    52    1
    49    20    53    1
    50    20    54    1
    51    21    22    1
    52    21    24    1
    53    21    29    1
    54    21    32    1
    55    22    28    1
    56    23    55    1
    57    23    56    1
    58    23    57    1
    59    24    58    1
    60    24    59    1
    61    25    60    1
    62    26    61    1
    63    26    62    1
    64    26    63    1
    65    27    64    1
    66    27    65    1
    67    27    66    1
    68    28    30    1
    69    28    67    1
    70    28    68    1
    71    29    31    1
    72    29    69    1
    73    29    70    1
    74    30    31    1
    75    30    33    1
    76    30    34    1
    77    33    73    1
    78    33    76    1
    79    33    77    1
    80    34    72    1
    81    34    74    1
    82    34    75    1
