@<TRIPOS>MOLECULE
IMPHY001820
 34 37 0 0 0
SMALL
GASTEIGER

@<TRIPOS>ATOM
      1 O           7.7139    2.1296    0.0000 O.2     1  UNL1       -0.5032
      2 O           5.9819    1.1296    0.0000 O.2     1  UNL1       -0.2834
      3 O           2.5392    1.1604    0.0000 O.3     1  UNL1       -0.5068
      4 C           7.7139   -0.8704    0.0000 C.ar    1  UNL1        0.0009
      5 C           6.8479   -0.3704    0.0000 C.ar    1  UNL1        0.0413
      6 C           5.9884   -0.8651    0.0000 C.ar    1  UNL1       -0.0063
      7 C           7.6978   -1.9119    0.0000 C.ar    1  UNL1       -0.0166
      8 C           8.5799   -0.3704    0.0000 C.ar    1  UNL1       -0.0131
      9 C           6.8479    0.6296    0.0000 C.2     1  UNL1        0.2283
     10 C           5.9750   -1.8568    0.0000 C.ar    1  UNL1       -0.0528
     11 C           6.8207   -2.3746    0.0000 C.ar    1  UNL1       -0.0534
     12 C           5.1261   -0.3587    0.0000 C.ar    1  UNL1       -0.0170
     13 C           8.5799    0.6296    0.0000 C.2     1  UNL1       -0.0086
     14 C           8.5959   -2.4396    0.0000 C.ar    1  UNL1       -0.0540
     15 C           9.4899   -0.8772    0.0000 C.ar    1  UNL1       -0.0539
     16 C           7.7139    1.1296    0.0000 C.2     1  UNL1        0.1648
     17 C           9.4980   -1.9188    0.0000 C.ar    1  UNL1       -0.0606
     18 C           5.1335    0.6412    0.0000 C.ar    1  UNL1       -0.0506
     19 C           4.2564   -0.8523    0.0000 C.ar    1  UNL1       -0.0506
     20 C           4.2712    1.1476    0.0000 C.ar    1  UNL1       -0.0196
     21 C           3.3941   -0.3459    0.0000 C.ar    1  UNL1       -0.0196
     22 C           3.4015    0.6540    0.0000 C.ar    1  UNL1        0.1169
     23 H           5.4320   -2.1561    0.0000 H       1  UNL1        0.0624
     24 H           6.8009   -2.9943    0.0000 H       1  UNL1        0.0624
     25 H           9.1169    0.9396    0.0000 H       1  UNL1        0.0661
     26 H           8.5935   -3.0596    0.0000 H       1  UNL1        0.0624
     27 H          10.0233   -0.5610    0.0000 H       1  UNL1        0.0624
     28 H          10.0361   -2.2267    0.0000 H       1  UNL1        0.0618
     29 H           5.6727    0.9472    0.0000 H       1  UNL1        0.0625
     30 H           4.2518   -1.4723    0.0000 H       1  UNL1        0.0625
     31 H           4.2758    1.7676    0.0000 H       1  UNL1        0.0654
     32 H           2.8549   -0.6519    0.0000 H       1  UNL1        0.0654
     33 H           8.2508    2.4396    0.0000 H       1  UNL1        0.2923
     34 H           2.0000    0.8544    0.0000 H       1  UNL1        0.2921
@<TRIPOS>BOND
     1     1    16    1
     2     1    33    1
     3     2     9    2
     4     3    22    1
     5     3    34    1
     6     4     5   ar
     7     4     7   ar
     8     4     8   ar
     9     5     6   ar
    10     5     9    1
    11     6    10   ar
    12     6    12    1
    13     7    11   ar
    14     7    14   ar
    15     8    13    1
    16     8    15   ar
    17     9    16    1
    18    10    11   ar
    19    10    23    1
    20    11    24    1
    21    12    18   ar
    22    12    19   ar
    23    13    16    2
    24    13    25    1
    25    14    17   ar
    26    14    26    1
    27    15    17   ar
    28    15    27    1
    29    17    28    1
    30    18    20   ar
    31    18    29    1
    32    19    21   ar
    33    19    30    1
    34    20    22   ar
    35    20    31    1
    36    21    22   ar
    37    21    32    1
