@<TRIPOS>MOLECULE
IMPHY014471
 45 44 0 0 0
SMALL
GASTEIGER

@<TRIPOS>ATOM
      1 O           5.8301    0.4330    0.0000 O.3     1  UNL1       -0.3888
      2 O          10.6603   -0.9330    0.0000 O.3     1  UNL1       -0.3848
      3 C           6.3301   -0.4330    0.0000 C.3     1  UNL1        0.0636
      4 C           7.1962    0.0670    0.0000 C.3     1  UNL1       -0.0242
      5 C           8.0622   -0.4330    0.0000 C.3     1  UNL1       -0.0476
      6 C           5.4641   -0.9330    0.0000 C.3     1  UNL1       -0.0208
      7 C           8.9282    0.0670    0.0000 C.3     1  UNL1       -0.0206
      8 C           9.7942   -0.4330    0.0000 C.3     1  UNL1        0.0811
      9 C           6.8301   -1.2990    0.0000 C.3     1  UNL1       -0.0361
     10 C           4.5981   -0.4330    0.0000 C.3     1  UNL1       -0.0319
     11 C           9.2942   -1.2990    0.0000 C.3     1  UNL1       -0.0325
     12 C          10.2942    0.4330    0.0000 C.2     1  UNL1       -0.0602
     13 C           3.7320   -0.9330    0.0000 C.2     1  UNL1       -0.0852
     14 C           2.8660   -0.4330    0.0000 C.2     1  UNL1       -0.0796
     15 C           9.7942    1.2990    0.0000 C.2     1  UNL1       -0.1000
     16 C           2.0000   -0.9330    0.0000 C.3     1  UNL1       -0.0440
     17 C           2.8660    0.5670    0.0000 C.3     1  UNL1       -0.0440
     18 H           7.5947    0.5419    0.0000 H       1  UNL1        0.0293
     19 H           6.7976    0.5419    0.0000 H       1  UNL1        0.0293
     20 H           7.6636   -0.9080    0.0000 H       1  UNL1        0.0267
     21 H           8.4607   -0.9080    0.0000 H       1  UNL1        0.0267
     22 H           5.0656   -1.4080    0.0000 H       1  UNL1        0.0296
     23 H           5.8626   -1.4080    0.0000 H       1  UNL1        0.0296
     24 H           9.3267    0.5419    0.0000 H       1  UNL1        0.0296
     25 H           8.5297    0.5419    0.0000 H       1  UNL1        0.0296
     26 H           6.2932   -1.6090    0.0000 H       1  UNL1        0.0257
     27 H           7.1401   -1.8360    0.0000 H       1  UNL1        0.0257
     28 H           7.3671   -0.9890    0.0000 H       1  UNL1        0.0257
     29 H           4.9966    0.0419    0.0000 H       1  UNL1        0.0308
     30 H           4.1996    0.0419    0.0000 H       1  UNL1        0.0308
     31 H           6.1401    0.9699    0.0000 H       1  UNL1        0.2101
     32 H           8.7573   -0.9890    0.0000 H       1  UNL1        0.0260
     33 H           8.9842   -1.8360    0.0000 H       1  UNL1        0.0260
     34 H           9.8312   -1.6090    0.0000 H       1  UNL1        0.0260
     35 H          10.9142    0.4330    0.0000 H       1  UNL1        0.0594
     36 H           3.7320   -1.5530    0.0000 H       1  UNL1        0.0571
     37 H          11.1972   -0.6230    0.0000 H       1  UNL1        0.2106
     38 H          10.1042    1.8360    0.0000 H       1  UNL1        0.0533
     39 H           9.1742    1.2990    0.0000 H       1  UNL1        0.0533
     40 H           1.6900   -0.3961    0.0000 H       1  UNL1        0.0274
     41 H           1.4631   -1.2430    0.0000 H       1  UNL1        0.0274
     42 H           2.3100   -1.4700    0.0000 H       1  UNL1        0.0274
     43 H           3.4860    0.5670    0.0000 H       1  UNL1        0.0274
     44 H           2.8660    1.1870    0.0000 H       1  UNL1        0.0274
     45 H           2.2460    0.5670    0.0000 H       1  UNL1        0.0274
@<TRIPOS>BOND
     1     1     3    1
     2     1    31    1
     3     2     8    1
     4     2    37    1
     5     3     4    1
     6     3     6    1
     7     3     9    1
     8     4     5    1
     9     4    18    1
    10     4    19    1
    11     5     7    1
    12     5    20    1
    13     5    21    1
    14     6    10    1
    15     6    22    1
    16     6    23    1
    17     7     8    1
    18     7    24    1
    19     7    25    1
    20     8    11    1
    21     8    12    1
    22     9    26    1
    23     9    27    1
    24     9    28    1
    25    10    13    1
    26    10    29    1
    27    10    30    1
    28    11    32    1
    29    11    33    1
    30    11    34    1
    31    12    15    2
    32    12    35    1
    33    13    14    2
    34    13    36    1
    35    14    16    1
    36    14    17    1
    37    15    38    1
    38    15    39    1
    39    16    40    1
    40    16    41    1
    41    16    42    1
    42    17    43    1
    43    17    44    1
    44    17    45    1
