@<TRIPOS>MOLECULE
IMPHY006915
 40 41 0 0 0
SMALL
GASTEIGER

@<TRIPOS>ATOM
      1 O           3.8125   -0.6424    0.0000 O.3     1  UNL1       -0.2265
      2 O           2.9645   -1.1724    0.0000 O.3     1  UNL1       -0.2284
      3 C           6.3976    1.2314    0.0000 C.3     1  UNL1       -0.0228
      4 C           4.9987    1.2226    0.0000 C.3     1  UNL1       -0.0018
      5 C           5.2575    2.1885    0.0000 C.3     1  UNL1       -0.0142
      6 C           4.5209    3.1712    0.0000 C.3     1  UNL1       -0.0399
      7 C           3.7776    0.3569    0.0000 C.3     1  UNL1        0.1155
      8 C           3.2242    1.8774    0.0000 C.2     1  UNL1       -0.0704
      9 C           6.8976    0.3654    0.0000 C.3     1  UNL1       -0.0589
     10 C           7.2636    1.7314    0.0000 C.3     1  UNL1       -0.0589
     11 C           2.9486    0.9161    0.0000 C.2     1  UNL1       -0.0531
     12 C           2.6086    2.6654    0.0000 C.3     1  UNL1       -0.0434
     13 C           2.9994   -2.1718    0.0000 C.3     1  UNL1        0.0962
     14 C           3.0343   -3.1712    0.0000 C.3     1  UNL1       -0.0333
     15 C           2.0000   -2.2067    0.0000 C.3     1  UNL1       -0.0333
     16 C           3.9988   -2.1369    0.0000 C.3     1  UNL1       -0.0333
     17 H           5.1887    0.6324    0.0000 H       1  UNL1        0.0335
     18 H           5.7078    2.6147    0.0000 H       1  UNL1        0.0351
     19 H           4.8387    3.7035    0.0000 H       1  UNL1        0.0275
     20 H           3.9077    3.2631    0.0000 H       1  UNL1        0.0275
     21 H           3.2354    0.0564    0.0000 H       1  UNL1        0.0675
     22 H           7.5736    1.1945    0.0000 H       1  UNL1        0.0235
     23 H           7.8006    2.0414    0.0000 H       1  UNL1        0.0235
     24 H           6.9536    2.2684    0.0000 H       1  UNL1        0.0235
     25 H           6.3607    0.0554    0.0000 H       1  UNL1        0.0235
     26 H           7.2076   -0.1715    0.0000 H       1  UNL1        0.0235
     27 H           7.4345    0.6754    0.0000 H       1  UNL1        0.0235
     28 H           2.3660    0.7041    0.0000 H       1  UNL1        0.0598
     29 H           3.0971    3.0471    0.0000 H       1  UNL1        0.0274
     30 H           2.2269    3.1540    0.0000 H       1  UNL1        0.0274
     31 H           2.1200    2.2837    0.0000 H       1  UNL1        0.0274
     32 H           1.9784   -1.5870    0.0000 H       1  UNL1        0.0258
     33 H           1.3804   -2.2283    0.0000 H       1  UNL1        0.0258
     34 H           4.0204   -2.7565    0.0000 H       1  UNL1        0.0258
     35 H           4.6184   -2.1152    0.0000 H       1  UNL1        0.0258
     36 H           3.9771   -1.5172    0.0000 H       1  UNL1        0.0258
     37 H           2.0216   -2.8263    0.0000 H       1  UNL1        0.0258
     38 H           2.4147   -3.1928    0.0000 H       1  UNL1        0.0258
     39 H           3.0559   -3.7908    0.0000 H       1  UNL1        0.0258
     40 H           3.6539   -3.1495    0.0000 H       1  UNL1        0.0258
@<TRIPOS>BOND
     1     1     2    1
     2     1     7    1
     3     2    13    1
     4     3     4    1
     5     3     5    1
     6     3     9    1
     7     3    10    1
     8     4     6    1
     9     4     7    1
    10     4    17    1
    11     5     6    1
    12     5     8    1
    13     5    18    1
    14     6    19    1
    15     6    20    1
    16     7    11    1
    17     7    21    1
    18     8    11    2
    19     8    12    1
    20     9    25    1
    21     9    26    1
    22     9    27    1
    23    10    22    1
    24    10    23    1
    25    10    24    1
    26    11    28    1
    27    12    29    1
    28    12    30    1
    29    12    31    1
    30    13    14    1
    31    13    15    1
    32    13    16    1
    33    14    38    1
    34    14    39    1
    35    14    40    1
    36    15    32    1
    37    15    33    1
    38    15    37    1
    39    16    34    1
    40    16    35    1
    41    16    36    1
