@<TRIPOS>MOLECULE
IMPHY001898
 54 57 0 0 0
SMALL
GASTEIGER

@<TRIPOS>ATOM
      1 O           7.7925   -1.9203    0.0000 O.3     1  UNL1       -0.4607
      2 O           6.9464    2.6459    0.0000 O.3     1  UNL1       -0.3840
      3 O           5.1804    1.6081    0.0000 O.2     1  UNL1       -0.2943
      4 O           4.3198    1.1112    0.0000 O.2     1  UNL1       -0.2940
      5 O           2.5381    0.1008    0.0000 O.3     1  UNL1       -0.3843
      6 O           9.5140   -1.9531    0.0000 O.2     1  UNL1       -0.2508
      7 C           6.9343   -0.4234    0.0000 C.3     1  UNL1        0.0191
      8 C           6.0682    0.0766    0.0000 C.3     1  UNL1        0.0415
      9 C           5.2022   -0.4234    0.0000 C.3     1  UNL1        0.0421
     10 C           5.2022   -1.4234    0.0000 C.3     1  UNL1       -0.0221
     11 C           7.8443    0.0835    0.0000 C.3     1  UNL1       -0.0162
     12 C           6.9343   -1.4234    0.0000 C.3     1  UNL1        0.1096
     13 C           6.0682   -1.9234    0.0000 C.3     1  UNL1       -0.0111
     14 C           7.8523    1.1251    0.0000 C.3     1  UNL1       -0.0069
     15 C           4.3083   -1.9580    0.0000 C.3     1  UNL1       -0.0373
     16 C           6.0522    1.1181    0.0000 C.2     1  UNL1        0.1664
     17 C           6.9343    0.5766    0.0000 C.3     1  UNL1       -0.0552
     18 C           6.9502    1.6459    0.0000 C.3     1  UNL1        0.1161
     19 C           4.3083    0.1113    0.0000 C.2     1  UNL1        0.1683
     20 C           8.6836   -0.4447    0.0000 C.3     1  UNL1        0.0487
     21 C           5.2022    0.5766    0.0000 C.3     1  UNL1       -0.0518
     22 C           3.4022   -1.4442    0.0000 C.3     1  UNL1       -0.0170
     23 C           3.4022   -0.4025    0.0000 C.3     1  UNL1        0.1138
     24 C           8.6580   -1.4361    0.0000 C.2     1  UNL1        0.3076
     25 C           8.7202    1.6217    0.0000 C.3     1  UNL1       -0.0594
     26 C           4.3198   -2.9580    0.0000 C.3     1  UNL1       -0.0620
     27 H           5.3289    0.4959    0.0000 H       1  UNL1        0.0394
     28 H           5.2088   -2.2733    0.0000 H       1  UNL1        0.0314
     29 H           8.5900    0.4915    0.0000 H       1  UNL1        0.0316
     30 H           6.9337   -2.2734    0.0000 H       1  UNL1        0.0740
     31 H           5.6697   -2.3983    0.0000 H       1  UNL1        0.0304
     32 H           6.4668   -2.3983    0.0000 H       1  UNL1        0.0304
     33 H           8.3874    0.8120    0.0000 H       1  UNL1        0.0330
     34 H           3.7744   -2.2732    0.0000 H       1  UNL1        0.0302
     35 H           7.5543    0.5766    0.0000 H       1  UNL1        0.0237
     36 H           6.9343    1.1966    0.0000 H       1  UNL1        0.0237
     37 H           6.3143    0.5766    0.0000 H       1  UNL1        0.0237
     38 H           6.4115    1.9528    0.0000 H       1  UNL1        0.0676
     39 H           9.2907   -0.5706    0.0000 H       1  UNL1        0.0380
     40 H           8.9154    0.1303    0.0000 H       1  UNL1        0.0380
     41 H           5.8222    0.5766    0.0000 H       1  UNL1        0.0239
     42 H           5.2022    1.1966    0.0000 H       1  UNL1        0.0239
     43 H           4.5822    0.5766    0.0000 H       1  UNL1        0.0239
     44 H           2.7914   -1.3381    0.0000 H       1  UNL1        0.0297
     45 H           3.1932   -2.0279    0.0000 H       1  UNL1        0.0297
     46 H           2.8647   -0.7115    0.0000 H       1  UNL1        0.0673
     47 H           9.0282    1.0836    0.0000 H       1  UNL1        0.0233
     48 H           9.2584    1.9297    0.0000 H       1  UNL1        0.0233
     49 H           8.4123    2.1599    0.0000 H       1  UNL1        0.0233
     50 H           3.6999   -2.9651    0.0000 H       1  UNL1        0.0233
     51 H           4.3270   -3.5779    0.0000 H       1  UNL1        0.0233
     52 H           4.9398   -2.9508    0.0000 H       1  UNL1        0.0233
     53 H           7.4821    2.9580    0.0000 H       1  UNL1        0.2104
     54 H           2.0000   -0.2071    0.0000 H       1  UNL1        0.2104
@<TRIPOS>BOND
     1     1    12    1
     2     1    24    1
     3    18     2    1
     4     2    53    1
     5     3    16    2
     6     4    19    2
     7    23     5    1
     8     5    54    1
     9     6    24    2
    10     7     8    1
    11     7    11    1
    12     7    12    1
    13     7    17    1
    14     8     9    1
    15     8    16    1
    16     8    27    1
    17     9    10    1
    18     9    19    1
    19     9    21    1
    20    10    13    1
    21    10    15    1
    22    10    28    1
    23    11    14    1
    24    11    20    1
    25    11    29    1
    26    12    13    1
    27    12    30    1
    28    13    31    1
    29    13    32    1
    30    14    18    1
    31    14    25    1
    32    14    33    1
    33    15    22    1
    34    15    26    1
    35    15    34    1
    36    16    18    1
    37    17    35    1
    38    17    36    1
    39    17    37    1
    40    18    38    1
    41    19    23    1
    42    20    24    1
    43    20    39    1
    44    20    40    1
    45    21    41    1
    46    21    42    1
    47    21    43    1
    48    22    23    1
    49    22    44    1
    50    22    45    1
    51    23    46    1
    52    25    47    1
    53    25    48    1
    54    25    49    1
    55    26    50    1
    56    26    51    1
    57    26    52    1
