@<TRIPOS>MOLECULE
IMPHY001946
 47 48 0 0 0
SMALL
GASTEIGER

@<TRIPOS>ATOM
      1 O           2.9950   -1.4466    0.0000 O.3     1  UNL1       -0.4544
      2 O           6.3301   -1.2796    0.0000 O.3     1  UNL1       -0.4570
      3 O           4.7169    0.0468    0.0000 O.3     1  UNL1       -0.3838
      4 O           2.9002   -3.2204    0.0000 O.2     1  UNL1       -0.2453
      5 O           3.7320    3.2204    0.0000 O.2     1  UNL1       -0.2879
      6 O           7.1962    0.2204    0.0000 O.2     1  UNL1       -0.2453
      7 C           4.5981   -1.2796    0.0000 C.3     1  UNL1        0.0675
      8 C           3.7320   -0.7796    0.0000 C.3     1  UNL1        0.1432
      9 C           5.4641   -0.7796    0.0000 C.3     1  UNL1        0.1175
     10 C           3.7320    0.2204    0.0000 C.3     1  UNL1        0.1139
     11 C           4.3889   -2.2514    0.0000 C.2     1  UNL1        0.0397
     12 C           5.4641    0.2204    0.0000 C.3     1  UNL1        0.0064
     13 C           3.4002   -2.3544    0.0000 C.2     1  UNL1        0.3355
     14 C           2.8660    0.7204    0.0000 C.2     1  UNL1       -0.0374
     15 C           4.5981    0.7204    0.0000 C.2     1  UNL1       -0.0655
     16 C           5.0567   -2.9957    0.0000 C.2     1  UNL1       -0.0882
     17 C           2.8660    1.7204    0.0000 C.2     1  UNL1       -0.0134
     18 C           2.0000    0.2204    0.0000 C.3     1  UNL1       -0.0408
     19 C           4.5981    1.7204    0.0000 C.2     1  UNL1       -0.0158
     20 C           4.0072    0.8248    0.0000 C.3     1  UNL1       -0.0433
     21 C           3.7320    2.2204    0.0000 C.2     1  UNL1        0.1790
     22 C           7.1962   -0.7796    0.0000 C.2     1  UNL1        0.3346
     23 C           8.0622   -1.2796    0.0000 C.2     1  UNL1        0.0265
     24 C           8.9282   -0.7796    0.0000 C.3     1  UNL1       -0.0335
     25 C           8.0622   -2.2796    0.0000 C.2     1  UNL1       -0.0890
     26 H           5.2851   -1.7801    0.0000 H       1  UNL1        0.0424
     27 H           3.1653   -0.5281    0.0000 H       1  UNL1        0.0771
     28 H           5.4641   -1.3996    0.0000 H       1  UNL1        0.0744
     29 H           3.9441    0.8031    0.0000 H       1  UNL1        0.0678
     30 H           6.0747    0.1128    0.0000 H       1  UNL1        0.0346
     31 H           5.6762    0.8031    0.0000 H       1  UNL1        0.0346
     32 H           4.8641   -3.5850    0.0000 H       1  UNL1        0.0540
     33 H           5.6634   -2.8678    0.0000 H       1  UNL1        0.0540
     34 H           4.6092   -0.5638    0.0000 H       1  UNL1        0.2104
     35 H           2.3291    2.0304    0.0000 H       1  UNL1        0.0656
     36 H           1.6900    0.7574    0.0000 H       1  UNL1        0.0275
     37 H           1.4631   -0.0896    0.0000 H       1  UNL1        0.0275
     38 H           2.3100   -0.3165    0.0000 H       1  UNL1        0.0275
     39 H           5.1350    2.0304    0.0000 H       1  UNL1        0.0655
     40 H           4.1151    1.4354    0.0000 H       1  UNL1        0.0274
     41 H           3.3967    0.9327    0.0000 H       1  UNL1        0.0274
     42 H           3.8994    0.2143    0.0000 H       1  UNL1        0.0274
     43 H           9.2382   -1.3165    0.0000 H       1  UNL1        0.0280
     44 H           9.4651   -0.4696    0.0000 H       1  UNL1        0.0280
     45 H           8.6182   -0.2426    0.0000 H       1  UNL1        0.0280
     46 H           7.5252   -2.5896    0.0000 H       1  UNL1        0.0540
     47 H           8.5991   -2.5896    0.0000 H       1  UNL1        0.0540
@<TRIPOS>BOND
     1     1     8    1
     2     1    13    1
     3     9     2    1
     4     2    22    1
     5    10     3    1
     6     3    34    1
     7     4    13    2
     8     5    21    2
     9     6    22    2
    10     7     8    1
    11     7     9    1
    12     7    11    1
    13     7    26    1
    14     8    10    1
    15     8    27    1
    16     9    12    1
    17     9    28    1
    18    10    14    1
    19    10    29    1
    20    11    13    1
    21    11    16    2
    22    12    15    1
    23    12    30    1
    24    12    31    1
    25    14    17    2
    26    14    18    1
    27    15    19    2
    28    15    20    1
    29    16    32    1
    30    16    33    1
    31    17    21    1
    32    17    35    1
    33    18    36    1
    34    18    37    1
    35    18    38    1
    36    19    21    1
    37    19    39    1
    38    20    40    1
    39    20    41    1
    40    20    42    1
    41    22    23    1
    42    23    24    1
    43    23    25    2
    44    24    43    1
    45    24    44    1
    46    24    45    1
    47    25    46    1
    48    25    47    1
