@<TRIPOS>MOLECULE
IMPHY005974
 39 42 0 0 0
SMALL
GASTEIGER

@<TRIPOS>ATOM
      1 C           3.1128   -1.2653    0.0000 C.3     1  UNL1       -0.0199
      2 C           2.3038   -0.6775    0.0000 C.3     1  UNL1       -0.0279
      3 C           2.1989   -1.6725    0.0000 C.3     1  UNL1       -0.0310
      4 C           3.9218   -0.6775    0.0000 C.3     1  UNL1       -0.0230
      5 C           3.6128    0.2735    0.0000 C.3     1  UNL1       -0.0312
      6 C           2.6128    0.2735    0.0000 C.3     1  UNL1       -0.0289
      7 C           2.3441   -0.2913    0.0000 C.3     1  UNL1       -0.0458
      8 C           2.9401    1.2313    0.0000 C.3     1  UNL1       -0.0315
      9 C           3.5195   -2.1789    0.0000 C.3     1  UNL1       -0.0585
     10 C           4.7315   -0.0703    0.0000 C.3     1  UNL1       -0.0468
     11 C           4.6649   -1.3467    0.0000 C.3     1  UNL1       -0.0588
     12 C           3.9050    1.5368    0.0000 C.3     1  UNL1       -0.0476
     13 C           4.7238    0.9418    0.0000 C.3     1  UNL1       -0.0520
     14 C           2.6205    2.1789    0.0000 C.3     1  UNL1       -0.0595
     15 C           2.0000    1.5723    0.0000 C.3     1  UNL1       -0.0595
     16 H           1.4723   -0.5007    0.0000 H       1  UNL1        0.0312
     17 H           1.6994   -2.3602    0.0000 H       1  UNL1        0.0309
     18 H           4.1124    0.9612    0.0000 H       1  UNL1        0.0309
     19 H           1.8064    0.5423    0.0000 H       1  UNL1        0.0312
     20 H           2.1941    0.3103    0.0000 H       1  UNL1        0.0271
     21 H           1.7256   -0.3346    0.0000 H       1  UNL1        0.0271
     22 H           2.9531   -2.4310    0.0000 H       1  UNL1        0.0235
     23 H           3.7717   -2.7453    0.0000 H       1  UNL1        0.0235
     24 H           4.0859   -1.9267    0.0000 H       1  UNL1        0.0235
     25 H           4.9908   -0.6334    0.0000 H       1  UNL1        0.0271
     26 H           5.3366    0.0647    0.0000 H       1  UNL1        0.0271
     27 H           4.2501   -1.8074    0.0000 H       1  UNL1        0.0235
     28 H           5.1257   -1.7615    0.0000 H       1  UNL1        0.0235
     29 H           5.0798   -0.8859    0.0000 H       1  UNL1        0.0235
     30 H           4.3668    1.9504    0.0000 H       1  UNL1        0.0271
     31 H           3.5977    2.0752    0.0000 H       1  UNL1        0.0271
     32 H           5.3309    0.8160    0.0000 H       1  UNL1        0.0266
     33 H           4.9746    1.5089    0.0000 H       1  UNL1        0.0266
     34 H           3.2080    2.3770    0.0000 H       1  UNL1        0.0235
     35 H           2.4224    2.7664    0.0000 H       1  UNL1        0.0235
     36 H           2.0330    1.9807    0.0000 H       1  UNL1        0.0235
     37 H           2.2114    2.1551    0.0000 H       1  UNL1        0.0235
     38 H           1.4172    1.7837    0.0000 H       1  UNL1        0.0235
     39 H           1.7886    0.9894    0.0000 H       1  UNL1        0.0235
@<TRIPOS>BOND
     1     1     2    1
     2     1     3    1
     3     1     4    1
     4     1     9    1
     5     2     3    1
     6     2     6    1
     7     2    16    1
     8     3     7    1
     9     3    17    1
    10     4     5    1
    11     4    10    1
    12     4    11    1
    13     5     6    1
    14     5     7    1
    15     5    18    1
    16     6     8    1
    17     6    19    1
    18     7    20    1
    19     7    21    1
    20     8    12    1
    21     8    14    1
    22     8    15    1
    23     9    22    1
    24     9    23    1
    25     9    24    1
    26    10    13    1
    27    10    25    1
    28    10    26    1
    29    11    27    1
    30    11    28    1
    31    11    29    1
    32    12    13    1
    33    12    30    1
    34    12    31    1
    35    13    32    1
    36    13    33    1
    37    14    34    1
    38    14    35    1
    39    14    36    1
    40    15    37    1
    41    15    38    1
    42    15    39    1
