@<TRIPOS>MOLECULE
IMPHY011781
 53 54 0 0 0
SMALL
GASTEIGER

@<TRIPOS>ATOM
      1 O           2.3100   -0.9977    0.0000 O.3     1  UNL1       -0.3774
      2 O           6.9967   -1.1488    0.0000 O.3     1  UNL1       -0.4500
      3 O           3.7583    0.6754    0.0000 O.3     1  UNL1       -0.4578
      4 O           4.2759   -1.2565    0.0000 O.2     1  UNL1       -0.2476
      5 O           6.0728   -0.7661    0.0000 O.2     1  UNL1       -0.2883
      6 O           6.4041   -2.7546    0.0000 O.2     1  UNL1       -0.2453
      7 N           7.6618    2.0476    0.0000 N.3     1  UNL1       -0.3016
      8 C           3.5688   -1.9636    0.0000 C.3     1  UNL1       -0.0006
      9 C           3.3100   -0.9977    0.0000 C.3     1  UNL1        0.1620
     10 C           4.5347   -2.2224    0.0000 C.3     1  UNL1       -0.0155
     11 C           6.7379   -0.1829    0.0000 C.3     1  UNL1        0.1663
     12 C           7.6618    0.1998    0.0000 C.3     1  UNL1        0.0045
     13 C           2.8617   -2.6707    0.0000 C.3     1  UNL1       -0.0590
     14 C           2.6672   -0.2316    0.0000 C.3     1  UNL1       -0.0253
     15 C           8.0444    1.1237    0.0000 C.3     1  UNL1        0.0027
     16 C           5.2418   -1.5153    0.0000 C.2     1  UNL1        0.0328
     17 C           4.0171   -0.2905    0.0000 C.2     1  UNL1        0.3395
     18 C           5.4313    1.1237    0.0000 C.2     1  UNL1        0.0331
     19 C           5.8140    0.1998    0.0000 C.2     1  UNL1        0.2025
     20 C           6.7379    2.4302    0.0000 C.3     1  UNL1        0.0176
     21 C           4.4654    1.3825    0.0000 C.3     1  UNL1        0.1207
     22 C           5.8140    2.0476    0.0000 C.2     1  UNL1       -0.0602
     23 C           6.2078   -1.7741    0.0000 C.2     1  UNL1        0.3355
     24 C           4.9830   -0.5494    0.0000 C.2     1  UNL1       -0.0771
     25 C           8.3689    2.7546    0.0000 C.3     1  UNL1       -0.0124
     26 C           4.5588   -0.1251    0.0000 C.3     1  UNL1       -0.0461
     27 H           2.9699   -1.8031    0.0000 H       1  UNL1        0.0334
     28 H           4.2727   -2.7843    0.0000 H       1  UNL1        0.0319
     29 H           5.0426   -2.5780    0.0000 H       1  UNL1        0.0319
     30 H           7.5002   -0.5588    0.0000 H       1  UNL1        0.0819
     31 H           7.7427   -0.4149    0.0000 H       1  UNL1        0.0318
     32 H           8.2765    0.1189    0.0000 H       1  UNL1        0.0318
     33 H           2.4233   -2.2323    0.0000 H       1  UNL1        0.0234
     34 H           2.4233   -3.1091    0.0000 H       1  UNL1        0.0234
     35 H           3.3001   -3.1091    0.0000 H       1  UNL1        0.0234
     36 H           8.5363    0.7462    0.0000 H       1  UNL1        0.0428
     37 H           8.5363    1.5011    0.0000 H       1  UNL1        0.0428
     38 H           3.1422    0.1669    0.0000 H       1  UNL1        0.0263
     39 H           2.2687    0.2433    0.0000 H       1  UNL1        0.0263
     40 H           2.1923   -0.6301    0.0000 H       1  UNL1        0.0263
     41 H           7.1153    2.9221    0.0000 H       1  UNL1        0.0470
     42 H           6.3604    2.9221    0.0000 H       1  UNL1        0.0470
     43 H           4.7274    1.9444    0.0000 H       1  UNL1        0.0750
     44 H           3.9575    1.7381    0.0000 H       1  UNL1        0.0750
     45 H           5.3756    2.4860    0.0000 H       1  UNL1        0.0590
     46 H           2.0000   -1.5346    0.0000 H       1  UNL1        0.2109
     47 H           5.1435    0.0495    0.0000 H       1  UNL1        0.0574
     48 H           8.8073    2.3162    0.0000 H       1  UNL1        0.0391
     49 H           8.8073    3.1931    0.0000 H       1  UNL1        0.0391
     50 H           7.9305    3.1931    0.0000 H       1  UNL1        0.0391
     51 H           4.9972    0.3133    0.0000 H       1  UNL1        0.0272
     52 H           4.1204    0.3133    0.0000 H       1  UNL1        0.0272
     53 H           4.1204   -0.5635    0.0000 H       1  UNL1        0.0272
@<TRIPOS>BOND
     1     9     1    1
     2     1    46    1
     3     2    11    1
     4     2    23    1
     5     3    17    1
     6     3    21    1
     7     4    17    2
     8     5    19    2
     9     6    23    2
    10     7    15    1
    11     7    20    1
    12     7    25    1
    13     8     9    1
    14     8    10    1
    15     8    13    1
    16     8    27    1
    17     9    14    1
    18     9    17    1
    19    10    16    1
    20    10    28    1
    21    10    29    1
    22    11    12    1
    23    11    19    1
    24    11    30    1
    25    12    15    1
    26    12    31    1
    27    12    32    1
    28    13    33    1
    29    13    34    1
    30    13    35    1
    31    14    38    1
    32    14    39    1
    33    14    40    1
    34    15    36    1
    35    15    37    1
    36    16    23    1
    37    16    24    2
    38    18    19    1
    39    18    21    1
    40    18    22    2
    41    20    22    1
    42    20    41    1
    43    20    42    1
    44    21    43    1
    45    21    44    1
    46    22    45    1
    47    24    26    1
    48    24    47    1
    49    25    48    1
    50    25    49    1
    51    25    50    1
    52    26    51    1
    53    26    52    1
    54    26    53    1
