@<TRIPOS>MOLECULE
IMPHY008755
 47 49 0 0 0
SMALL
GASTEIGER

@<TRIPOS>ATOM
      1 O           5.5301   -0.0121    0.0000 O.2     1  UNL1       -0.4545
      2 O           2.0000    2.0121    0.0000 O.3     1  UNL1       -0.4914
      3 O           2.0000   -0.0362    0.0000 O.3     1  UNL1       -0.4913
      4 O           9.8602    0.4879    0.0000 O.3     1  UNL1       -0.4913
      5 O           8.1282   -2.5121    0.0000 O.3     1  UNL1       -0.4913
      6 O           9.8602   -1.5121    0.0000 O.3     1  UNL1       -0.4885
      7 O           5.5301    2.9879    0.0000 O.2     1  UNL1       -0.2870
      8 C           4.6641    1.4879    0.0000 C.ar    1  UNL1        0.0677
      9 C           6.3961    0.4879    0.0000 C.ar    1  UNL1        0.1395
     10 C           7.2622   -0.0121    0.0000 C.ar    1  UNL1        0.0245
     11 C           4.6641    0.4879    0.0000 C.ar    1  UNL1        0.1429
     12 C           5.5301    1.9879    0.0000 C.ar    1  UNL1        0.1932
     13 C           6.3961    1.4879    0.0000 C.ar    1  UNL1        0.0287
     14 C           3.7702    2.0226    0.0000 C.ar    1  UNL1       -0.0020
     15 C           3.7702   -0.0467    0.0000 C.ar    1  UNL1        0.0267
     16 C           7.2622   -1.0121    0.0000 C.ar    1  UNL1       -0.0054
     17 C           8.1282    0.4879    0.0000 C.ar    1  UNL1       -0.0054
     18 C           2.8641    1.5087    0.0000 C.ar    1  UNL1        0.1624
     19 C           2.8641    0.4671    0.0000 C.ar    1  UNL1        0.1650
     20 C           8.9942   -0.0121    0.0000 C.ar    1  UNL1        0.1658
     21 C           8.1282   -1.5121    0.0000 C.ar    1  UNL1        0.1658
     22 C           8.9942   -1.0121    0.0000 C.ar    1  UNL1        0.2035
     23 C           2.0038    3.0121    0.0000 C.3     1  UNL1        0.0790
     24 C           9.8602    1.4879    0.0000 C.3     1  UNL1        0.0790
     25 C           7.2622   -3.0121    0.0000 C.3     1  UNL1        0.0790
     26 C           2.0038   -1.0362    0.0000 C.3     1  UNL1        0.0790
     27 C          10.7263   -1.0121    0.0000 C.3     1  UNL1        0.0791
     28 H           6.9331    1.7979    0.0000 H       1  UNL1        0.0693
     29 H           3.7773    2.6426    0.0000 H       1  UNL1        0.0663
     30 H           6.7252   -1.3221    0.0000 H       1  UNL1        0.0662
     31 H           8.1282    1.1079    0.0000 H       1  UNL1        0.0662
     32 H           3.7773   -0.6667    0.0000 H       1  UNL1        0.0692
     33 H          10.4803    1.4879    0.0000 H       1  UNL1        0.0660
     34 H           9.8602    2.1079    0.0000 H       1  UNL1        0.0660
     35 H           9.2402    1.4879    0.0000 H       1  UNL1        0.0660
     36 H           6.9522   -2.4751    0.0000 H       1  UNL1        0.0660
     37 H           6.7252   -3.3221    0.0000 H       1  UNL1        0.0660
     38 H           7.5722   -3.5490    0.0000 H       1  UNL1        0.0660
     39 H           2.6238    3.0097    0.0000 H       1  UNL1        0.0660
     40 H           2.0062    3.6321    0.0000 H       1  UNL1        0.0660
     41 H           1.3839    3.0145    0.0000 H       1  UNL1        0.0660
     42 H           1.3839   -1.0386    0.0000 H       1  UNL1        0.0660
     43 H           2.0062   -1.6562    0.0000 H       1  UNL1        0.0660
     44 H           2.6238   -1.0338    0.0000 H       1  UNL1        0.0660
     45 H          11.0363   -1.5490    0.0000 H       1  UNL1        0.0660
     46 H          11.2632   -0.7021    0.0000 H       1  UNL1        0.0660
     47 H          10.4163   -0.4751    0.0000 H       1  UNL1        0.0660
@<TRIPOS>BOND
     1     1     9   ar
     2     1    11   ar
     3     2    18    1
     4     2    23    1
     5     3    19    1
     6     3    26    1
     7     4    20    1
     8     4    24    1
     9     5    21    1
    10     5    25    1
    11     6    22    1
    12     6    27    1
    13     7    12    2
    14     8    11   ar
    15     8    12   ar
    16     8    14   ar
    17     9    10    1
    18     9    13   ar
    19    10    16   ar
    20    10    17   ar
    21    11    15   ar
    22    12    13   ar
    23    13    28    1
    24    14    18   ar
    25    14    29    1
    26    15    19   ar
    27    15    32    1
    28    16    21   ar
    29    16    30    1
    30    17    20   ar
    31    17    31    1
    32    18    19   ar
    33    20    22   ar
    34    21    22   ar
    35    23    39    1
    36    23    40    1
    37    23    41    1
    38    24    33    1
    39    24    34    1
    40    24    35    1
    41    25    36    1
    42    25    37    1
    43    25    38    1
    44    26    42    1
    45    26    43    1
    46    26    44    1
    47    27    45    1
    48    27    46    1
    49    27    47    1
