@<TRIPOS>MOLECULE
IMPHY017256
 32 31 0 0 0
SMALL
GASTEIGER

@<TRIPOS>ATOM
      1 C           4.5981    0.2500    0.0000 C.3     1  UNL1       -0.0439
      2 C           5.4641    0.7500    0.0000 C.3     1  UNL1       -0.0505
      3 C           3.7320    0.7500    0.0000 C.3     1  UNL1       -0.0507
      4 C           6.3301    0.2500    0.0000 C.3     1  UNL1       -0.0528
      5 C           7.1962    0.7500    0.0000 C.3     1  UNL1       -0.0533
      6 C           4.5981   -0.7500    0.0000 C.3     1  UNL1       -0.0624
      7 C           2.8660    0.2500    0.0000 C.3     1  UNL1       -0.0557
      8 C           8.0622    0.2500    0.0000 C.3     1  UNL1       -0.0559
      9 C           2.0000    0.7500    0.0000 C.3     1  UNL1       -0.0653
     10 C           8.9282    0.7500    0.0000 C.3     1  UNL1       -0.0653
     11 H           5.1350   -0.0600    0.0000 H       1  UNL1        0.0298
     12 H           5.8626    1.2250    0.0000 H       1  UNL1        0.0268
     13 H           5.0656    1.2250    0.0000 H       1  UNL1        0.0268
     14 H           4.1306    1.2250    0.0000 H       1  UNL1        0.0268
     15 H           3.3335    1.2250    0.0000 H       1  UNL1        0.0268
     16 H           5.9316   -0.2249    0.0000 H       1  UNL1        0.0265
     17 H           6.7287   -0.2249    0.0000 H       1  UNL1        0.0265
     18 H           7.5947    1.2250    0.0000 H       1  UNL1        0.0265
     19 H           6.7976    1.2250    0.0000 H       1  UNL1        0.0265
     20 H           3.9781   -0.7500    0.0000 H       1  UNL1        0.0232
     21 H           4.5981   -1.3700    0.0000 H       1  UNL1        0.0232
     22 H           5.2181   -0.7500    0.0000 H       1  UNL1        0.0232
     23 H           2.4675   -0.2249    0.0000 H       1  UNL1        0.0263
     24 H           3.2646   -0.2249    0.0000 H       1  UNL1        0.0263
     25 H           7.6636   -0.2249    0.0000 H       1  UNL1        0.0263
     26 H           8.4607   -0.2249    0.0000 H       1  UNL1        0.0263
     27 H           2.3100    1.2869    0.0000 H       1  UNL1        0.0230
     28 H           1.4631    1.0600    0.0000 H       1  UNL1        0.0230
     29 H           1.6900    0.2131    0.0000 H       1  UNL1        0.0230
     30 H           9.2382    0.2131    0.0000 H       1  UNL1        0.0230
     31 H           9.4651    1.0600    0.0000 H       1  UNL1        0.0230
     32 H           8.6182    1.2869    0.0000 H       1  UNL1        0.0230
@<TRIPOS>BOND
     1     1     2    1
     2     1     3    1
     3     1     6    1
     4     1    11    1
     5     2     4    1
     6     2    12    1
     7     2    13    1
     8     3     7    1
     9     3    14    1
    10     3    15    1
    11     4     5    1
    12     4    16    1
    13     4    17    1
    14     5     8    1
    15     5    18    1
    16     5    19    1
    17     6    20    1
    18     6    21    1
    19     6    22    1
    20     7     9    1
    21     7    23    1
    22     7    24    1
    23     8    10    1
    24     8    25    1
    25     8    26    1
    26     9    27    1
    27     9    28    1
    28     9    29    1
    29    10    30    1
    30    10    31    1
    31    10    32    1
