@<TRIPOS>MOLECULE
IMPHY004132
 50 53 0 0 0
SMALL
GASTEIGER

@<TRIPOS>ATOM
      1 O           4.2690   -1.7053    0.0000 O.3     1  UNL1       -0.3339
      2 O           6.0010   -1.7053    0.0000 O.3     1  UNL1       -0.4607
      3 O           4.2690   -4.7053    0.0000 O.3     1  UNL1       -0.3864
      4 O           2.5369   -3.7053    0.0000 O.3     1  UNL1       -0.3866
      5 O           6.0010   -3.7053    0.0000 O.3     1  UNL1       -0.3829
      6 O           4.2548    1.3738    0.0000 O.3     1  UNL1       -0.5059
      7 O           8.6211    0.8538    0.0000 O.2     1  UNL1       -0.2866
      8 O           5.1647    2.8672    0.0000 O.2     1  UNL1       -0.2864
      9 O           6.0149    4.3954    0.0000 O.3     1  UNL1       -0.5060
     10 C           4.2690   -3.7053    0.0000 C.3     1  UNL1        0.1151
     11 C           3.4030   -3.2053    0.0000 C.3     1  UNL1        0.1096
     12 C           5.1350   -3.2053    0.0000 C.3     1  UNL1        0.1454
     13 C           3.4030   -2.2053    0.0000 C.3     1  UNL1        0.0883
     14 C           5.1350   -2.2053    0.0000 C.3     1  UNL1        0.2307
     15 C           2.5369   -1.7053    0.0000 C.3     1  UNL1       -0.0360
     16 C           6.0010   -0.7053    0.0000 C.ar    1  UNL1        0.1282
     17 C           6.8891    0.8605    0.0000 C.ar    1  UNL1        0.0401
     18 C           6.9011   -0.1811    0.0000 C.ar    1  UNL1       -0.0081
     19 C           6.0250    1.3638    0.0000 C.ar    1  UNL1        0.0748
     20 C           5.1010   -0.1811    0.0000 C.ar    1  UNL1        0.0224
     21 C           7.7609    2.3572    0.0000 C.ar    1  UNL1        0.0368
     22 C           5.1130    0.8605    0.0000 C.ar    1  UNL1        0.1318
     23 C           6.8968    2.8605    0.0000 C.ar    1  UNL1        0.0745
     24 C           7.7570    1.3572    0.0000 C.2     1  UNL1        0.1949
     25 C           6.0288    2.3638    0.0000 C.2     1  UNL1        0.2015
     26 C           8.6728    2.8605    0.0000 C.ar    1  UNL1       -0.0471
     27 C           6.8847    3.9020    0.0000 C.ar    1  UNL1        0.1286
     28 C           8.6849    3.9020    0.0000 C.ar    1  UNL1       -0.0463
     29 C           7.7848    4.4263    0.0000 C.ar    1  UNL1       -0.0165
     30 C           9.5547    4.3954    0.0000 C.3     1  UNL1       -0.0396
     31 H           4.8059   -4.0153    0.0000 H       1  UNL1        0.0648
     32 H           3.4030   -3.8253    0.0000 H       1  UNL1        0.0646
     33 H           5.6720   -2.8953    0.0000 H       1  UNL1        0.0683
     34 H           3.4030   -1.5853    0.0000 H       1  UNL1        0.0621
     35 H           5.1350   -1.5853    0.0000 H       1  UNL1        0.1084
     36 H           2.8469   -1.1684    0.0000 H       1  UNL1        0.0255
     37 H           2.0000   -1.3953    0.0000 H       1  UNL1        0.0255
     38 H           2.2269   -2.2423    0.0000 H       1  UNL1        0.0255
     39 H           3.7320   -5.0153    0.0000 H       1  UNL1        0.2100
     40 H           2.0000   -3.3953    0.0000 H       1  UNL1        0.2100
     41 H           6.0010   -4.3253    0.0000 H       1  UNL1        0.2102
     42 H           7.4404   -0.4869    0.0000 H       1  UNL1        0.0661
     43 H           4.5617   -0.4869    0.0000 H       1  UNL1        0.0691
     44 H           9.2049    2.5422    0.0000 H       1  UNL1        0.0627
     45 H           7.7848    5.0463    0.0000 H       1  UNL1        0.0657
     46 H           3.7132    1.0721    0.0000 H       1  UNL1        0.2922
     47 H           9.8606    3.8560    0.0000 H       1  UNL1        0.0278
     48 H          10.0940    4.7012    0.0000 H       1  UNL1        0.0278
     49 H           9.2488    4.9347    0.0000 H       1  UNL1        0.0278
     50 H           6.0101    5.0153    0.0000 H       1  UNL1        0.2922
@<TRIPOS>BOND
     1     1    13    1
     2     1    14    1
     3    14     2    1
     4     2    16    1
     5    10     3    1
     6     3    39    1
     7    11     4    1
     8     4    40    1
     9    12     5    1
    10     5    41    1
    11     6    22    1
    12     6    46    1
    13     7    24    2
    14     8    25    2
    15     9    27    1
    16     9    50    1
    17    10    11    1
    18    10    12    1
    19    10    31    1
    20    11    13    1
    21    11    32    1
    22    12    14    1
    23    12    33    1
    24    13    15    1
    25    13    34    1
    26    14    35    1
    27    15    36    1
    28    15    37    1
    29    15    38    1
    30    16    18   ar
    31    16    20   ar
    32    17    18   ar
    33    17    19   ar
    34    17    24    1
    35    18    42    1
    36    19    22   ar
    37    19    25    1
    38    20    22   ar
    39    20    43    1
    40    21    23   ar
    41    21    24    1
    42    21    26   ar
    43    23    25    1
    44    23    27   ar
    45    26    28   ar
    46    26    44    1
    47    27    29   ar
    48    28    29   ar
    49    28    30    1
    50    29    45    1
    51    30    47    1
    52    30    48    1
    53    30    49    1
