@<TRIPOS>MOLECULE
IMPHY017008
 31 30 0 0 0
SMALL
GASTEIGER

@<TRIPOS>ATOM
      1 O           4.5981   -0.7500    0.0000 O.2     1  UNL1       -0.2974
      2 C           7.1962    0.7500    0.0000 C.3     1  UNL1       -0.0527
      3 C           6.3301    0.2500    0.0000 C.3     1  UNL1       -0.0464
      4 C           8.0622    0.2500    0.0000 C.3     1  UNL1       -0.0533
      5 C           5.4641    0.7500    0.0000 C.3     1  UNL1        0.0058
      6 C           8.9282    0.7500    0.0000 C.3     1  UNL1       -0.0559
      7 C           4.5981    0.2500    0.0000 C.2     1  UNL1        0.1334
      8 C           3.7320    0.7500    0.0000 C.3     1  UNL1        0.0056
      9 C           2.8660    0.2500    0.0000 C.3     1  UNL1       -0.0492
     10 C           9.7942    0.2500    0.0000 C.3     1  UNL1       -0.0653
     11 C           2.0000    0.7500    0.0000 C.3     1  UNL1       -0.0649
     12 H           7.5947    1.2250    0.0000 H       1  UNL1        0.0265
     13 H           6.7976    1.2250    0.0000 H       1  UNL1        0.0265
     14 H           5.9316   -0.2249    0.0000 H       1  UNL1        0.0269
     15 H           6.7287   -0.2249    0.0000 H       1  UNL1        0.0269
     16 H           7.6636   -0.2249    0.0000 H       1  UNL1        0.0265
     17 H           8.4607   -0.2249    0.0000 H       1  UNL1        0.0265
     18 H           5.8626    1.2250    0.0000 H       1  UNL1        0.0342
     19 H           5.0656    1.2250    0.0000 H       1  UNL1        0.0342
     20 H           9.3267    1.2250    0.0000 H       1  UNL1        0.0263
     21 H           8.5297    1.2250    0.0000 H       1  UNL1        0.0263
     22 H           4.1306    1.2250    0.0000 H       1  UNL1        0.0341
     23 H           3.3335    1.2250    0.0000 H       1  UNL1        0.0341
     24 H           2.4675   -0.2249    0.0000 H       1  UNL1        0.0267
     25 H           3.2646   -0.2249    0.0000 H       1  UNL1        0.0267
     26 H           9.4842   -0.2869    0.0000 H       1  UNL1        0.0230
     27 H          10.3312   -0.0600    0.0000 H       1  UNL1        0.0230
     28 H          10.1042    0.7869    0.0000 H       1  UNL1        0.0230
     29 H           2.3100    1.2869    0.0000 H       1  UNL1        0.0230
     30 H           1.4631    1.0600    0.0000 H       1  UNL1        0.0230
     31 H           1.6900    0.2131    0.0000 H       1  UNL1        0.0230
@<TRIPOS>BOND
     1     1     7    2
     2     2     3    1
     3     2     4    1
     4     2    12    1
     5     2    13    1
     6     3     5    1
     7     3    14    1
     8     3    15    1
     9     4     6    1
    10     4    16    1
    11     4    17    1
    12     5     7    1
    13     5    18    1
    14     5    19    1
    15     6    10    1
    16     6    20    1
    17     6    21    1
    18     7     8    1
    19     8     9    1
    20     8    22    1
    21     8    23    1
    22     9    11    1
    23     9    24    1
    24     9    25    1
    25    10    26    1
    26    10    27    1
    27    10    28    1
    28    11    29    1
    29    11    30    1
    30    11    31    1
