@<TRIPOS>MOLECULE
IMPHY003272
 38 43 0 0 0
SMALL
GASTEIGER

@<TRIPOS>ATOM
      1 O           5.7497    2.5612    0.0000 O.3     1  UNL1       -0.4563
      2 O           3.4519   -3.0952    0.0000 O.3     1  UNL1       -0.4526
      3 O           2.0000   -2.2569    0.0000 O.3     1  UNL1       -0.4526
      4 O           8.9621   -0.2089    0.0000 O.3     1  UNL1       -0.4526
      5 O           8.9621   -1.8184    0.0000 O.3     1  UNL1       -0.4526
      6 O           4.0931    3.2025    0.0000 O.2     1  UNL1       -0.2449
      7 C           5.4178   -0.0136    0.0000 C.ar    1  UNL1       -0.0028
      8 C           5.4178    0.9864    0.0000 C.ar    1  UNL1        0.0120
      9 C           4.5518   -0.5136    0.0000 C.ar    1  UNL1       -0.0061
     10 C           3.6857   -0.0136    0.0000 C.ar    1  UNL1       -0.0128
     11 C           4.5518    1.4864    0.0000 C.ar    1  UNL1        0.0666
     12 C           6.2838   -0.5136    0.0000 C.ar    1  UNL1       -0.0132
     13 C           6.1548    1.6535    0.0000 C.3     1  UNL1        0.1192
     14 C           3.6857    0.9864    0.0000 C.ar    1  UNL1       -0.0395
     15 C           4.5678   -1.5551    0.0000 C.ar    1  UNL1       -0.0078
     16 C           2.7757   -0.5205    0.0000 C.ar    1  UNL1       -0.0084
     17 C           3.6698   -2.0829    0.0000 C.ar    1  UNL1        0.1668
     18 C           2.7677   -1.5621    0.0000 C.ar    1  UNL1        0.1668
     19 C           4.7610    2.4582    0.0000 C.2     1  UNL1        0.3399
     20 C           7.1498   -0.0136    0.0000 C.ar    1  UNL1       -0.0084
     21 C           6.2838   -1.5136    0.0000 C.ar    1  UNL1       -0.0503
     22 C           8.0159   -0.5136    0.0000 C.ar    1  UNL1        0.1668
     23 C           8.0159   -1.5136    0.0000 C.ar    1  UNL1        0.1663
     24 C           7.1498   -2.0136    0.0000 C.ar    1  UNL1       -0.0156
     25 C           2.4220   -3.2025    0.0000 C.3     1  UNL1        0.2332
     26 C           9.5457   -1.0136    0.0000 C.3     1  UNL1        0.2332
     27 H           6.5202    1.1526    0.0000 H       1  UNL1        0.0749
     28 H           6.6913    1.9642    0.0000 H       1  UNL1        0.0749
     29 H           3.1488    1.2964    0.0000 H       1  UNL1        0.0632
     30 H           5.1083   -1.8589    0.0000 H       1  UNL1        0.0662
     31 H           2.2424   -0.2043    0.0000 H       1  UNL1        0.0661
     32 H           7.1498    0.6064    0.0000 H       1  UNL1        0.0661
     33 H           5.7469   -1.8236    0.0000 H       1  UNL1        0.0625
     34 H           7.1498   -2.6336    0.0000 H       1  UNL1        0.0655
     35 H           1.8324   -3.3943    0.0000 H       1  UNL1        0.1166
     36 H           2.5507   -3.8090    0.0000 H       1  UNL1        0.1166
     37 H          10.0066   -1.4284    0.0000 H       1  UNL1        0.1166
     38 H          10.0066   -0.5989    0.0000 H       1  UNL1        0.1166
@<TRIPOS>BOND
     1     1    13    1
     2     1    19    1
     3     2    17    1
     4     2    25    1
     5     3    18    1
     6     3    25    1
     7     4    22    1
     8     4    26    1
     9     5    23    1
    10     5    26    1
    11     6    19    2
    12     7     8   ar
    13     7     9   ar
    14     7    12    1
    15     8    11   ar
    16     8    13    1
    17     9    10   ar
    18     9    15   ar
    19    10    14   ar
    20    10    16   ar
    21    11    14   ar
    22    11    19    1
    23    12    20   ar
    24    12    21   ar
    25    13    27    1
    26    13    28    1
    27    14    29    1
    28    15    17   ar
    29    15    30    1
    30    16    18   ar
    31    16    31    1
    32    17    18   ar
    33    20    22   ar
    34    20    32    1
    35    21    24   ar
    36    21    33    1
    37    22    23   ar
    38    23    24   ar
    39    24    34    1
    40    25    35    1
    41    25    36    1
    42    26    37    1
    43    26    38    1
