@<TRIPOS>MOLECULE
IMPHY005945
 31 32 0 0 0
SMALL
GASTEIGER

@<TRIPOS>ATOM
      1 O           8.0020   -1.6441    0.0000 O.3     1  UNL1       -0.3902
      2 O           3.1133   -0.9177    0.0000 O.3     1  UNL1       -0.4614
      3 O           3.7057   -2.5453    0.0000 O.2     1  UNL1       -0.2512
      4 N           5.6253    1.6793    0.0000 N.3     1  UNL1       -0.2967
      5 C           6.1031   -0.2692    0.0000 C.3     1  UNL1        0.0397
      6 C           6.3619    0.6967    0.0000 C.3     1  UNL1        0.0162
      7 C           7.5020   -0.7781    0.0000 C.3     1  UNL1        0.0723
      8 C           7.7608    0.1879    0.0000 C.3     1  UNL1       -0.0096
      9 C           4.8821   -1.1349    0.0000 C.3     1  UNL1        0.0024
     10 C           4.3287    0.3856    0.0000 C.3     1  UNL1        0.0001
     11 C           4.0530   -0.5757    0.0000 C.3     1  UNL1        0.1060
     12 C           5.1253    2.5453    0.0000 C.3     1  UNL1       -0.0121
     13 C           2.9397   -1.9025    0.0000 C.2     1  UNL1        0.3042
     14 C           2.0000   -2.2446    0.0000 C.3     1  UNL1        0.0332
     15 H           6.2166   -1.1116    0.0000 H       1  UNL1        0.0489
     16 H           6.8683    1.3794    0.0000 H       1  UNL1        0.0464
     17 H           6.9557   -1.4293    0.0000 H       1  UNL1        0.0609
     18 H           8.3548    0.0101    0.0000 H       1  UNL1        0.0306
     19 H           7.9558    0.7764    0.0000 H       1  UNL1        0.0306
     20 H           4.4762   -1.6036    0.0000 H       1  UNL1        0.0317
     21 H           5.2987   -1.5940    0.0000 H       1  UNL1        0.0317
     22 H           4.3236    1.0055    0.0000 H       1  UNL1        0.0316
     23 H           3.7144    0.4693    0.0000 H       1  UNL1        0.0316
     24 H           3.4314    0.0040    0.0000 H       1  UNL1        0.0735
     25 H           5.6622    2.8553    0.0000 H       1  UNL1        0.0391
     26 H           4.8153    3.0823    0.0000 H       1  UNL1        0.0391
     27 H           4.5884    2.2353    0.0000 H       1  UNL1        0.0391
     28 H           8.6220   -1.6441    0.0000 H       1  UNL1        0.2098
     29 H           1.7880   -1.6620    0.0000 H       1  UNL1        0.0342
     30 H           1.4174   -2.4566    0.0000 H       1  UNL1        0.0342
     31 H           2.2120   -2.8272    0.0000 H       1  UNL1        0.0342
@<TRIPOS>BOND
     1     1     7    1
     2     1    28    1
     3     2    11    1
     4     2    13    1
     5     3    13    2
     6     4     5    1
     7     4     6    1
     8     4    12    1
     9     5     7    1
    10     5     9    1
    11     5    15    1
    12     6     8    1
    13     6    10    1
    14     6    16    1
    15     7     8    1
    16     7    17    1
    17     8    18    1
    18     8    19    1
    19     9    11    1
    20     9    20    1
    21     9    21    1
    22    10    11    1
    23    10    22    1
    24    10    23    1
    25    11    24    1
    26    12    25    1
    27    12    26    1
    28    12    27    1
    29    13    14    1
    30    14    29    1
    31    14    30    1
    32    14    31    1
