@<TRIPOS>MOLECULE
IMPHY010664
 93 99 0 0 0
SMALL
GASTEIGER

@<TRIPOS>ATOM
      1 O           8.2565   -0.7026    0.0000 O.3     1  UNL1       -0.3878
      2 O           4.9163    1.8904    0.0000 O.3     1  UNL1       -0.3791
      3 O           8.6327    1.6388    0.0000 O.3     1  UNL1       -0.4575
      4 O           9.0340    2.3483    0.0000 O.3     1  UNL1       -0.3793
      5 O           4.0503   -2.3448    0.0000 O.3     1  UNL1       -0.3824
      6 O           8.7880   -0.0862    0.0000 O.2     1  UNL1       -0.2456
      7 O          13.9231   -1.3631    0.0000 O.3     1  UNL1       -0.4914
      8 O          14.7638    0.4516    0.0000 O.3     1  UNL1       -0.4915
      9 N           3.7210    0.0613    0.0000 N.3     1  UNL1       -0.2981
     10 C           5.6676    0.4566    0.0000 C.3     1  UNL1        0.0195
     11 C           5.6676   -0.4110    0.0000 C.3     1  UNL1       -0.0220
     12 C           6.3459    0.9975    0.0000 C.3     1  UNL1       -0.0220
     13 C           4.6656    0.3505    0.0000 C.3     1  UNL1        0.0244
     14 C           7.1918   -0.7589    0.0000 C.3     1  UNL1        0.0048
     15 C           7.1918    0.8044    0.0000 C.3     1  UNL1        0.0292
     16 C           7.5682    0.0228    0.0000 C.3     1  UNL1        0.0791
     17 C           4.9163   -0.8448    0.0000 C.3     1  UNL1        0.0104
     18 C           6.3459   -0.9519    0.0000 C.3     1  UNL1       -0.0420
     19 C           4.9163    0.8904    0.0000 C.3     1  UNL1        0.0659
     20 C           6.2682    1.8616    0.0000 C.3     1  UNL1       -0.0405
     21 C           7.0659    2.2026    0.0000 C.3     1  UNL1        0.0231
     22 C           7.6367    1.5492    0.0000 C.3     1  UNL1        0.1142
     23 C           8.2131    0.2927    0.0000 C.3     1  UNL1        0.0034
     24 C           3.7210   -0.6906    0.0000 C.3     1  UNL1        0.0072
     25 C           4.1649   -0.4110    0.0000 C.3     1  UNL1       -0.0415
     26 C           8.2131    1.7772    0.0000 C.3     1  UNL1        0.0671
     27 C           4.1649    0.4566    0.0000 C.3     1  UNL1       -0.0254
     28 C           4.9163   -1.8448    0.0000 C.3     1  UNL1        0.0544
     29 C           2.9170    0.6560    0.0000 C.3     1  UNL1       -0.0036
     30 C           2.0000    0.2571    0.0000 C.3     1  UNL1       -0.0523
     31 C           4.0502    2.3904    0.0000 C.3     1  UNL1        0.0368
     32 C           9.2083    0.8211    0.0000 C.2     1  UNL1        0.3322
     33 C           8.9498    3.3448    0.0000 C.3     1  UNL1        0.0368
     34 C           4.0503   -3.3448    0.0000 C.3     1  UNL1        0.0365
     35 C          10.2043    0.9108    0.0000 C.2     1  UNL1        0.0231
     36 C          10.7799    0.0931    0.0000 C.2     1  UNL1       -0.0477
     37 C          11.7759    0.1827    0.0000 C.ar    1  UNL1       -0.0211
     38 C          12.3515   -0.6350    0.0000 C.ar    1  UNL1       -0.0091
     39 C          12.1962    1.0900    0.0000 C.ar    1  UNL1       -0.0509
     40 C          13.3475   -0.5454    0.0000 C.ar    1  UNL1        0.1620
     41 C          13.1922    1.1797    0.0000 C.ar    1  UNL1       -0.0157
     42 C          13.7678    0.3620    0.0000 C.ar    1  UNL1        0.1615
     43 C          13.5027   -2.2705    0.0000 C.3     1  UNL1        0.0790
     44 C          15.1842    1.3590    0.0000 C.3     1  UNL1        0.0790
     45 H           5.6213   -1.0293    0.0000 H       1  UNL1        0.0314
     46 H           5.7758    1.2412    0.0000 H       1  UNL1        0.0312
     47 H           4.5417    0.9580    0.0000 H       1  UNL1        0.0473
     48 H           7.5783   -1.2436    0.0000 H       1  UNL1        0.0344
     49 H           7.8111    0.7766    0.0000 H       1  UNL1        0.0367
     50 H           5.8612   -1.3385    0.0000 H       1  UNL1        0.0272
     51 H           6.6149   -1.5105    0.0000 H       1  UNL1        0.0272
     52 H           5.4532    1.2004    0.0000 H       1  UNL1        0.0602
     53 H           6.0854    2.4540    0.0000 H       1  UNL1        0.0273
     54 H           5.6598    1.7418    0.0000 H       1  UNL1        0.0273
     55 H           7.0508    2.8224    0.0000 H       1  UNL1        0.0362
     56 H           7.8676    2.1246    0.0000 H       1  UNL1        0.0741
     57 H           8.3750   -0.3058    0.0000 H       1  UNL1        0.0318
     58 H           8.8277    0.3744    0.0000 H       1  UNL1        0.0318
     59 H           3.1015   -0.6640    0.0000 H       1  UNL1        0.0433
     60 H           3.6680   -1.3083    0.0000 H       1  UNL1        0.0433
     61 H           3.5544   -0.3033    0.0000 H       1  UNL1        0.0273
     62 H           3.9529   -0.9936    0.0000 H       1  UNL1        0.0273
     63 H           8.1349    2.3923    0.0000 H       1  UNL1        0.0601
     64 H           3.9529    1.0392    0.0000 H       1  UNL1        0.0290
     65 H           3.5544    0.3489    0.0000 H       1  UNL1        0.0290
     66 H           5.1283   -2.4274    0.0000 H       1  UNL1        0.0566
     67 H           5.5269   -1.7371    0.0000 H       1  UNL1        0.0566
     68 H           8.0804   -1.2971    0.0000 H       1  UNL1        0.2102
     69 H           3.3666    1.0829    0.0000 H       1  UNL1        0.0424
     70 H           2.5747    1.1730    0.0000 H       1  UNL1        0.0424
     71 H           1.7527    0.8256    0.0000 H       1  UNL1        0.0242
     72 H           1.4315    0.0098    0.0000 H       1  UNL1        0.0242
     73 H           2.2473   -0.3114    0.0000 H       1  UNL1        0.0242
     74 H           4.3602    2.9273    0.0000 H       1  UNL1        0.0524
     75 H           3.5133    2.7004    0.0000 H       1  UNL1        0.0524
     76 H           3.7402    1.8534    0.0000 H       1  UNL1        0.0524
     77 H           9.5676    3.3970    0.0000 H       1  UNL1        0.0524
     78 H           8.8976    3.9626    0.0000 H       1  UNL1        0.0524
     79 H           8.3320    3.2926    0.0000 H       1  UNL1        0.0524
     80 H           3.4303   -3.3448    0.0000 H       1  UNL1        0.0523
     81 H           4.0503   -3.9648    0.0000 H       1  UNL1        0.0523
     82 H           4.6703   -3.3448    0.0000 H       1  UNL1        0.0523
     83 H          10.4649    1.4733    0.0000 H       1  UNL1        0.0689
     84 H          10.5193   -0.4695    0.0000 H       1  UNL1        0.0626
     85 H          12.0909   -1.1976    0.0000 H       1  UNL1        0.0661
     86 H          11.8394    1.5970    0.0000 H       1  UNL1        0.0625
     87 H          13.4528    1.7422    0.0000 H       1  UNL1        0.0655
     88 H          12.9402   -2.0098    0.0000 H       1  UNL1        0.0660
     89 H          13.2421   -2.8330    0.0000 H       1  UNL1        0.0660
     90 H          14.0653   -2.5311    0.0000 H       1  UNL1        0.0660
     91 H          15.7467    1.0984    0.0000 H       1  UNL1        0.0660
     92 H          15.4448    1.9215    0.0000 H       1  UNL1        0.0660
     93 H          14.6216    1.6196    0.0000 H       1  UNL1        0.0660
@<TRIPOS>BOND
     1     1    16    1
     2     1    68    1
     3     2    19    1
     4     2    31    1
     5     3    22    1
     6     3    32    1
     7     4    26    1
     8     4    33    1
     9     5    28    1
    10     5    34    1
    11     6    32    2
    12     7    40    1
    13     7    43    1
    14     8    42    1
    15     8    44    1
    16     9    13    1
    17     9    24    1
    18     9    29    1
    19    10    11    1
    20    10    12    1
    21    10    13    1
    22    10    19    1
    23    11    17    1
    24    11    18    1
    25    11    45    1
    26    12    15    1
    27    12    20    1
    28    12    46    1
    29    13    14    1
    30    13    47    1
    31    14    16    1
    32    14    18    1
    33    14    48    1
    34    15    16    1
    35    15    22    1
    36    15    49    1
    37    16    23    1
    38    17    24    1
    39    17    25    1
    40    17    28    1
    41    18    50    1
    42    18    51    1
    43    19    27    1
    44    19    52    1
    45    20    21    1
    46    20    53    1
    47    20    54    1
    48    21    22    1
    49    21    26    1
    50    21    55    1
    51    22    56    1
    52    23    26    1
    53    23    57    1
    54    23    58    1
    55    24    59    1
    56    24    60    1
    57    25    27    1
    58    25    61    1
    59    25    62    1
    60    26    63    1
    61    27    64    1
    62    27    65    1
    63    28    66    1
    64    28    67    1
    65    29    30    1
    66    29    69    1
    67    29    70    1
    68    30    71    1
    69    30    72    1
    70    30    73    1
    71    31    74    1
    72    31    75    1
    73    31    76    1
    74    32    35    1
    75    33    77    1
    76    33    78    1
    77    33    79    1
    78    34    80    1
    79    34    81    1
    80    34    82    1
    81    35    36    2
    82    35    83    1
    83    36    37    1
    84    36    84    1
    85    37    38   ar
    86    37    39   ar
    87    38    40   ar
    88    38    85    1
    89    39    41   ar
    90    39    86    1
    91    40    42   ar
    92    41    42   ar
    93    41    87    1
    94    43    88    1
    95    43    89    1
    96    43    90    1
    97    44    91    1
    98    44    92    1
    99    44    93    1
