@<TRIPOS>MOLECULE
IMPHY011638
 105 110 0 0 0
SMALL
GASTEIGER

@<TRIPOS>ATOM
      1 O           7.8708   -1.6743    0.0000 O.3     1  UNL1       -0.3679
      2 O           6.8671   -4.8433    0.0000 O.3     1  UNL1       -0.3448
      3 O           5.1350   -4.8433    0.0000 O.3     1  UNL1       -0.3405
      4 O           6.8671   -6.8433    0.0000 O.3     1  UNL1       -0.3841
      5 O           5.1350   -7.8433    0.0000 O.3     1  UNL1       -0.3864
      6 O           3.4030   -6.8433    0.0000 O.3     1  UNL1       -0.3865
      7 O           5.1230    7.2065    0.0000 O.3     1  UNL1       -0.3731
      8 O           2.5369   -5.3433    0.0000 O.3     1  UNL1       -0.3924
      9 C           6.8948   -0.7742    0.0000 C.3     1  UNL1        0.0067
     10 C           7.7829    0.7639    0.0000 C.3     1  UNL1       -0.0196
     11 C           7.7628   -0.2775    0.0000 C.3     1  UNL1       -0.0088
     12 C           6.8869    1.2952    0.0000 C.3     1  UNL1       -0.0230
     13 C           6.8910   -1.7742    0.0000 C.3     1  UNL1        0.0007
     14 C           7.7551   -2.2775    0.0000 C.3     1  UNL1        0.0984
     15 C           5.9868   -0.2638    0.0000 C.3     1  UNL1       -0.0438
     16 C           7.1165    2.3048    0.0000 C.3     1  UNL1       -0.0322
     17 C           5.9828    0.7778    0.0000 C.3     1  UNL1       -0.0462
     18 C           8.5586    1.4499    0.0000 C.3     1  UNL1       -0.0463
     19 C           7.4735   -0.9800    0.0000 C.3     1  UNL1        0.0554
     20 C           7.7671   -3.3190    0.0000 C.3     1  UNL1        0.0243
     21 C           8.1475    2.4003    0.0000 C.3     1  UNL1       -0.0489
     22 C           5.9790   -2.2775    0.0000 C.3     1  UNL1       -0.0443
     23 C           8.6269   -0.7808    0.0000 C.2     1  UNL1       -0.0810
     24 C           8.6230   -1.7808    0.0000 C.2     1  UNL1       -0.0554
     25 C           8.7828    0.7524    0.0000 C.3     1  UNL1       -0.0585
     26 C           6.0267    1.8051    0.0000 C.3     1  UNL1       -0.0588
     27 C           6.8671   -3.8433    0.0000 C.3     1  UNL1        0.0698
     28 C           6.4573    3.0568    0.0000 C.3     1  UNL1       -0.0371
     29 C           5.9670   -3.3190    0.0000 C.3     1  UNL1       -0.0255
     30 C           8.2738   -4.1812    0.0000 C.3     1  UNL1       -0.0545
     31 C           8.7671   -3.3113    0.0000 C.3     1  UNL1       -0.0545
     32 C           6.7789    4.0037    0.0000 C.3     1  UNL1       -0.0318
     33 C           5.4765    2.8619    0.0000 C.3     1  UNL1       -0.0619
     34 C           6.0010   -5.3433    0.0000 C.3     1  UNL1        0.1882
     35 C           6.1197    4.7556    0.0000 C.2     1  UNL1       -0.0850
     36 C           6.0010   -6.3433    0.0000 C.3     1  UNL1        0.1341
     37 C           6.4414    5.7025    0.0000 C.2     1  UNL1       -0.0571
     38 C           5.1350   -6.8433    0.0000 C.3     1  UNL1        0.1141
     39 C           4.2690   -5.3433    0.0000 C.3     1  UNL1        0.1130
     40 C           4.2690   -6.3433    0.0000 C.3     1  UNL1        0.1119
     41 C           5.7822    6.4545    0.0000 C.3     1  UNL1        0.0816
     42 C           3.4030   -4.8433    0.0000 C.3     1  UNL1        0.0730
     43 C           6.5341    7.1137    0.0000 C.3     1  UNL1       -0.0325
     44 C           5.0302    5.7953    0.0000 C.3     1  UNL1       -0.0325
     45 C           5.4446    8.1533    0.0000 C.3     1  UNL1        0.0375
     46 H           8.5006    0.1447    0.0000 H       1  UNL1        0.0355
     47 H           6.1565   -1.3463    0.0000 H       1  UNL1        0.0338
     48 H           5.3755   -0.1601    0.0000 H       1  UNL1        0.0272
     49 H           5.7800   -0.8483    0.0000 H       1  UNL1        0.0272
     50 H           7.4313    3.0944    0.0000 H       1  UNL1        0.0309
     51 H           5.7715    1.3607    0.0000 H       1  UNL1        0.0271
     52 H           5.3724    0.6694    0.0000 H       1  UNL1        0.0271
     53 H           8.9182    0.9448    0.0000 H       1  UNL1        0.0271
     54 H           9.0986    1.7544    0.0000 H       1  UNL1        0.0271
     55 H           8.0768   -0.8371    0.0000 H       1  UNL1        0.0566
     56 H           7.5073   -0.3609    0.0000 H       1  UNL1        0.0566
     57 H           8.7393    2.5852    0.0000 H       1  UNL1        0.0268
     58 H           8.0258    3.0082    0.0000 H       1  UNL1        0.0268
     59 H           5.7768   -1.6914    0.0000 H       1  UNL1        0.0270
     60 H           5.3670   -2.3765    0.0000 H       1  UNL1        0.0270
     61 H           9.1650   -0.4729    0.0000 H       1  UNL1        0.0573
     62 H           9.1588   -2.0929    0.0000 H       1  UNL1        0.0598
     63 H           8.7756    0.1324    0.0000 H       1  UNL1        0.0235
     64 H           9.4028    0.7452    0.0000 H       1  UNL1        0.0235
     65 H           8.7900    1.3723    0.0000 H       1  UNL1        0.0235
     66 H           6.3429    2.3384    0.0000 H       1  UNL1        0.0235
     67 H           5.4934    2.1213    0.0000 H       1  UNL1        0.0235
     68 H           5.7105    1.2718    0.0000 H       1  UNL1        0.0235
     69 H           7.4046   -4.1523    0.0000 H       1  UNL1        0.0603
     70 H           6.0486    3.5230    0.0000 H       1  UNL1        0.0304
     71 H           5.3574   -3.2059    0.0000 H       1  UNL1        0.0290
     72 H           5.7512   -3.9003    0.0000 H       1  UNL1        0.0290
     73 H           7.7393   -4.4953    0.0000 H       1  UNL1        0.0237
     74 H           8.5879   -4.7157    0.0000 H       1  UNL1        0.0237
     75 H           8.8083   -3.8671    0.0000 H       1  UNL1        0.0237
     76 H           8.7719   -3.9313    0.0000 H       1  UNL1        0.0237
     77 H           9.3871   -3.3066    0.0000 H       1  UNL1        0.0237
     78 H           8.7623   -2.6914    0.0000 H       1  UNL1        0.0237
     79 H           7.3224    3.7054    0.0000 H       1  UNL1        0.0310
     80 H           7.1671    4.4871    0.0000 H       1  UNL1        0.0310
     81 H           5.3556    3.4700    0.0000 H       1  UNL1        0.0233
     82 H           4.8683    2.7411    0.0000 H       1  UNL1        0.0233
     83 H           5.5973    2.2538    0.0000 H       1  UNL1        0.0233
     84 H           6.0010   -4.7233    0.0000 H       1  UNL1        0.0937
     85 H           5.5116    4.6348    0.0000 H       1  UNL1        0.0570
     86 H           6.0010   -6.9633    0.0000 H       1  UNL1        0.0671
     87 H           7.0495    5.8233    0.0000 H       1  UNL1        0.0597
     88 H           4.5981   -7.1533    0.0000 H       1  UNL1        0.0648
     89 H           4.2690   -4.7233    0.0000 H       1  UNL1        0.0647
     90 H           3.7320   -6.0333    0.0000 H       1  UNL1        0.0647
     91 H           6.8671   -7.4633    0.0000 H       1  UNL1        0.2101
     92 H           3.8015   -4.3684    0.0000 H       1  UNL1        0.0584
     93 H           3.0044   -4.3684    0.0000 H       1  UNL1        0.0584
     94 H           4.5981   -8.1533    0.0000 H       1  UNL1        0.2100
     95 H           4.6215    6.2615    0.0000 H       1  UNL1        0.0260
     96 H           6.9428    6.6475    0.0000 H       1  UNL1        0.0260
     97 H           7.0004    7.5224    0.0000 H       1  UNL1        0.0260
     98 H           6.1254    7.5799    0.0000 H       1  UNL1        0.0260
     99 H           4.5640    5.3866    0.0000 H       1  UNL1        0.0260
    100 H           5.4389    5.3291    0.0000 H       1  UNL1        0.0260
    101 H           3.4030   -7.4633    0.0000 H       1  UNL1        0.2100
    102 H           2.0000   -5.0333    0.0000 H       1  UNL1        0.2095
    103 H           6.0317    7.9539    0.0000 H       1  UNL1        0.0524
    104 H           5.6440    8.7404    0.0000 H       1  UNL1        0.0524
    105 H           4.8576    8.3527    0.0000 H       1  UNL1        0.0524
@<TRIPOS>BOND
     1     1    14    1
     2     1    19    1
     3    27     2    1
     4    34     2    1
     5     3    34    1
     6     3    39    1
     7    36     4    1
     8     4    91    1
     9    38     5    1
    10     5    94    1
    11    40     6    1
    12     6   101    1
    13     7    41    1
    14     7    45    1
    15     8    42    1
    16     8   102    1
    17     9    11    1
    18     9    13    1
    19     9    15    1
    20     9    19    1
    21    10    11    1
    22    10    12    1
    23    10    18    1
    24    10    25    1
    25    11    23    1
    26    11    46    1
    27    12    16    1
    28    12    17    1
    29    12    26    1
    30    13    14    1
    31    13    22    1
    32    13    47    1
    33    14    20    1
    34    14    24    1
    35    15    17    1
    36    15    48    1
    37    15    49    1
    38    16    21    1
    39    16    28    1
    40    16    50    1
    41    17    51    1
    42    17    52    1
    43    18    21    1
    44    18    53    1
    45    18    54    1
    46    19    55    1
    47    19    56    1
    48    20    27    1
    49    20    30    1
    50    20    31    1
    51    21    57    1
    52    21    58    1
    53    22    29    1
    54    22    59    1
    55    22    60    1
    56    23    24    2
    57    23    61    1
    58    24    62    1
    59    25    63    1
    60    25    64    1
    61    25    65    1
    62    26    66    1
    63    26    67    1
    64    26    68    1
    65    27    29    1
    66    27    69    1
    67    28    32    1
    68    28    33    1
    69    28    70    1
    70    29    71    1
    71    29    72    1
    72    30    73    1
    73    30    74    1
    74    30    75    1
    75    31    76    1
    76    31    77    1
    77    31    78    1
    78    32    35    1
    79    32    79    1
    80    32    80    1
    81    33    81    1
    82    33    82    1
    83    33    83    1
    84    34    36    1
    85    34    84    1
    86    35    37    2
    87    35    85    1
    88    36    38    1
    89    36    86    1
    90    37    41    1
    91    37    87    1
    92    38    40    1
    93    38    88    1
    94    39    40    1
    95    39    42    1
    96    39    89    1
    97    40    90    1
    98    41    43    1
    99    41    44    1
   100    42    92    1
   101    42    93    1
   102    43    96    1
   103    43    97    1
   104    43    98    1
   105    44    95    1
   106    44    99    1
   107    44   100    1
   108    45   103    1
   109    45   104    1
   110    45   105    1
