@<TRIPOS>MOLECULE
IMPHY013103
 40 41 0 0 0
SMALL
GASTEIGER

@<TRIPOS>ATOM
      1 O           2.5369    0.0950    0.0000 O.3     1  UNL1       -0.3886
      2 O           2.5369    2.0950    0.0000 O.3     1  UNL1       -0.3924
      3 O           2.5369   -2.9050    0.0000 O.3     1  UNL1       -0.5033
      4 O           4.2690   -3.9050    0.0000 O.3     1  UNL1       -0.5033
      5 O           8.5991    3.5950    0.0000 O.3     1  UNL1       -0.5068
      6 C           4.2690    0.0950    0.0000 C.3     1  UNL1        0.0308
      7 C           3.4030    0.5950    0.0000 C.3     1  UNL1        0.0884
      8 C           4.2690   -0.9050    0.0000 C.ar    1  UNL1       -0.0343
      9 C           5.1350    0.5950    0.0000 C.2     1  UNL1       -0.0736
     10 C           3.4030    1.5950    0.0000 C.3     1  UNL1        0.0710
     11 C           3.4030   -1.4050    0.0000 C.ar    1  UNL1       -0.0127
     12 C           5.1350   -1.4050    0.0000 C.ar    1  UNL1       -0.0542
     13 C           5.1350    1.5950    0.0000 C.2     1  UNL1       -0.0579
     14 C           3.4030   -2.4050    0.0000 C.ar    1  UNL1        0.1585
     15 C           5.1350   -2.4050    0.0000 C.ar    1  UNL1       -0.0163
     16 C           6.0010    2.0950    0.0000 C.ar    1  UNL1       -0.0251
     17 C           4.2690   -2.9050    0.0000 C.ar    1  UNL1        0.1582
     18 C           6.0010    3.0950    0.0000 C.ar    1  UNL1       -0.0512
     19 C           6.8671    1.5950    0.0000 C.ar    1  UNL1       -0.0512
     20 C           6.8671    3.5950    0.0000 C.ar    1  UNL1       -0.0196
     21 C           7.7331    2.0950    0.0000 C.ar    1  UNL1       -0.0196
     22 C           7.7331    3.0950    0.0000 C.ar    1  UNL1        0.1169
     23 H           4.2690    0.7150    0.0000 H       1  UNL1        0.0417
     24 H           3.4030   -0.0250    0.0000 H       1  UNL1        0.0625
     25 H           5.6720    0.2850    0.0000 H       1  UNL1        0.0579
     26 H           4.0135    1.4873    0.0000 H       1  UNL1        0.0583
     27 H           3.6150    2.1776    0.0000 H       1  UNL1        0.0583
     28 H           2.8660   -1.0950    0.0000 H       1  UNL1        0.0658
     29 H           5.6720   -1.0950    0.0000 H       1  UNL1        0.0622
     30 H           4.5981    1.9050    0.0000 H       1  UNL1        0.0621
     31 H           2.0000    0.4050    0.0000 H       1  UNL1        0.2099
     32 H           5.6720   -2.7150    0.0000 H       1  UNL1        0.0655
     33 H           2.5369    2.7150    0.0000 H       1  UNL1        0.2095
     34 H           5.4641    3.4050    0.0000 H       1  UNL1        0.0625
     35 H           6.8671    0.9750    0.0000 H       1  UNL1        0.0625
     36 H           6.8671    4.2150    0.0000 H       1  UNL1        0.0654
     37 H           8.2700    1.7850    0.0000 H       1  UNL1        0.0654
     38 H           2.0000   -2.5950    0.0000 H       1  UNL1        0.2923
     39 H           4.8059   -4.2150    0.0000 H       1  UNL1        0.2923
     40 H           8.5991    4.2150    0.0000 H       1  UNL1        0.2921
@<TRIPOS>BOND
     1     7     1    1
     2     1    31    1
     3     2    10    1
     4     2    33    1
     5     3    14    1
     6     3    38    1
     7     4    17    1
     8     4    39    1
     9     5    22    1
    10     5    40    1
    11     6     7    1
    12     6     8    1
    13     6     9    1
    14     6    23    1
    15     7    10    1
    16     7    24    1
    17     8    11   ar
    18     8    12   ar
    19     9    13    2
    20     9    25    1
    21    10    26    1
    22    10    27    1
    23    11    14   ar
    24    11    28    1
    25    12    15   ar
    26    12    29    1
    27    13    16    1
    28    13    30    1
    29    14    17   ar
    30    15    17   ar
    31    15    32    1
    32    16    18   ar
    33    16    19   ar
    34    18    20   ar
    35    18    34    1
    36    19    21   ar
    37    19    35    1
    38    20    22   ar
    39    20    36    1
    40    21    22   ar
    41    21    37    1
