@<TRIPOS>MOLECULE
IMPHY004543
 39 41 0 0 0
SMALL
GASTEIGER

@<TRIPOS>ATOM
      1 C           4.5772   -0.5146    0.0000 C.3     1  UNL1       -0.0001
      2 C           4.6841    0.6621    0.0000 C.3     1  UNL1       -0.0225
      3 C           3.6763   -0.0807    0.0000 C.3     1  UNL1       -0.0284
      4 C           4.0772    1.6760    0.0000 C.3     1  UNL1       -0.0345
      5 C           3.4538    0.8942    0.0000 C.3     1  UNL1       -0.0458
      6 C           4.4413   -1.4994    0.0000 C.3     1  UNL1       -0.0427
      7 C           2.9912   -0.8010    0.0000 C.3     1  UNL1       -0.0402
      8 C           5.4782   -0.0807    0.0000 C.2     1  UNL1       -0.0697
      9 C           3.4630   -1.6760    0.0000 C.3     1  UNL1       -0.0494
     10 C           5.0772    1.6760    0.0000 C.3     1  UNL1       -0.0460
     11 C           5.7007    0.8942    0.0000 C.3     1  UNL1       -0.0312
     12 C           5.5796    1.3836    0.0000 C.3     1  UNL1       -0.0588
     13 C           5.8040    0.4007    0.0000 C.3     1  UNL1       -0.0588
     14 C           2.0000   -0.6685    0.0000 C.3     1  UNL1       -0.0621
     15 C           6.2600   -0.7042    0.0000 C.2     1  UNL1       -0.0989
     16 H           4.1610    0.3058    0.0000 H       1  UNL1        0.0312
     17 H           3.8082    2.2346    0.0000 H       1  UNL1        0.0306
     18 H           3.0672    1.3789    0.0000 H       1  UNL1        0.0271
     19 H           2.8952    0.6252    0.0000 H       1  UNL1        0.0271
     20 H           4.4867   -2.1177    0.0000 H       1  UNL1        0.0274
     21 H           5.0609   -1.5192    0.0000 H       1  UNL1        0.0274
     22 H           2.7851   -0.2163    0.0000 H       1  UNL1        0.0301
     23 H           2.8894   -1.9113    0.0000 H       1  UNL1        0.0268
     24 H           3.6367   -2.2712    0.0000 H       1  UNL1        0.0268
     25 H           5.6358    1.9450    0.0000 H       1  UNL1        0.0271
     26 H           4.9393    2.2805    0.0000 H       1  UNL1        0.0271
     27 H           6.2593    0.6252    0.0000 H       1  UNL1        0.0310
     28 H           6.0873    1.3789    0.0000 H       1  UNL1        0.0310
     29 H           5.9686    0.9008    0.0000 H       1  UNL1        0.0235
     30 H           6.0624    1.7726    0.0000 H       1  UNL1        0.0235
     31 H           5.1906    1.8664    0.0000 H       1  UNL1        0.0235
     32 H           5.6630   -0.2031    0.0000 H       1  UNL1        0.0235
     33 H           6.4077    0.2597    0.0000 H       1  UNL1        0.0235
     34 H           5.9450    1.0044    0.0000 H       1  UNL1        0.0235
     35 H           2.0822   -0.0540    0.0000 H       1  UNL1        0.0233
     36 H           1.3855   -0.5864    0.0000 H       1  UNL1        0.0233
     37 H           1.9178   -1.2830    0.0000 H       1  UNL1        0.0233
     38 H           6.1676   -1.3173    0.0000 H       1  UNL1        0.0535
     39 H           6.8372   -0.4777    0.0000 H       1  UNL1        0.0535
@<TRIPOS>BOND
     1     1     2    1
     2     1     3    1
     3     1     6    1
     4     1     8    1
     5     2     4    1
     6     2    12    1
     7     2    13    1
     8     3     5    1
     9     3     7    1
    10     3    16    1
    11     4     5    1
    12     4    10    1
    13     4    17    1
    14     5    18    1
    15     5    19    1
    16     6     9    1
    17     6    20    1
    18     6    21    1
    19     7     9    1
    20     7    14    1
    21     7    22    1
    22     8    11    1
    23     8    15    2
    24     9    23    1
    25     9    24    1
    26    10    11    1
    27    10    25    1
    28    10    26    1
    29    11    27    1
    30    11    28    1
    31    12    29    1
    32    12    30    1
    33    12    31    1
    34    13    32    1
    35    13    33    1
    36    13    34    1
    37    14    35    1
    38    14    36    1
    39    14    37    1
    40    15    38    1
    41    15    39    1
