@<TRIPOS>MOLECULE
IMPHY001056
 53 55 0 0 0
SMALL
GASTEIGER

@<TRIPOS>ATOM
      1 O           6.4044    3.5544    0.0000 O.3     1  UNL1       -0.3950
      2 O           4.6497   -3.5461    0.0000 O.3     1  UNL1       -0.5030
      3 O           2.8680   -0.4874    0.0000 O.3     1  UNL1       -0.4913
      4 O           2.8680   -2.5357    0.0000 O.3     1  UNL1       -0.4885
      5 N           7.2641   -1.0115    0.0000 N.3     1  UNL1       -0.2948
      6 C           7.2800    1.0577    0.0000 C.3     1  UNL1       -0.0333
      7 C           8.1821    0.5369    0.0000 C.3     1  UNL1       -0.0255
      8 C           6.3981   -0.5115    0.0000 C.3     1  UNL1        0.0364
      9 C           6.3820    0.5300    0.0000 C.3     1  UNL1       -0.0300
     10 C           8.1741   -0.5047    0.0000 C.3     1  UNL1        0.0026
     11 C           7.2641   -2.0115    0.0000 C.3     1  UNL1        0.0036
     12 C           5.5320   -1.0115    0.0000 C.ar    1  UNL1       -0.0199
     13 C           7.2762    2.0577    0.0000 C.3     1  UNL1       -0.0265
     14 C           9.0501    1.0336    0.0000 C.3     1  UNL1       -0.0516
     15 C           6.3981   -2.5115    0.0000 C.3     1  UNL1       -0.0110
     16 C           5.5320   -2.0115    0.0000 C.ar    1  UNL1        0.0038
     17 C           6.4082    2.5544    0.0000 C.3     1  UNL1        0.0445
     18 C           4.6381   -0.4769    0.0000 C.ar    1  UNL1       -0.0111
     19 C           9.9142    0.5302    0.0000 C.3     1  UNL1       -0.0650
     20 C           4.6381   -2.5462    0.0000 C.ar    1  UNL1        0.1658
     21 C           3.7320   -0.9907    0.0000 C.ar    1  UNL1        0.1655
     22 C           3.7320   -2.0323    0.0000 C.ar    1  UNL1        0.2036
     23 C           2.8718    0.5126    0.0000 C.3     1  UNL1        0.0790
     24 C           2.0000   -2.0390    0.0000 C.3     1  UNL1        0.0791
     25 H           6.7413    1.3646    0.0000 H       1  UNL1        0.0305
     26 H           8.7173    0.2238    0.0000 H       1  UNL1        0.0316
     27 H           7.1309   -0.0809    0.0000 H       1  UNL1        0.0512
     28 H           6.1640    1.1104    0.0000 H       1  UNL1        0.0286
     29 H           5.7729    0.4145    0.0000 H       1  UNL1        0.0286
     30 H           8.3786   -1.0900    0.0000 H       1  UNL1        0.0429
     31 H           8.7858   -0.4033    0.0000 H       1  UNL1        0.0429
     32 H           7.4762   -2.5941    0.0000 H       1  UNL1        0.0430
     33 H           7.8747   -1.9039    0.0000 H       1  UNL1        0.0430
     34 H           7.8872    1.9524    0.0000 H       1  UNL1        0.0290
     35 H           7.4860    2.6412    0.0000 H       1  UNL1        0.0290
     36 H           9.4504    1.5070    0.0000 H       1  UNL1        0.0266
     37 H           8.6534    1.5101    0.0000 H       1  UNL1        0.0266
     38 H           5.9995   -2.9865    0.0000 H       1  UNL1        0.0327
     39 H           6.7966   -2.9865    0.0000 H       1  UNL1        0.0327
     40 H           5.7973    2.6597    0.0000 H       1  UNL1        0.0557
     41 H           6.1984    1.9710    0.0000 H       1  UNL1        0.0557
     42 H           4.6453    0.1431    0.0000 H       1  UNL1        0.0659
     43 H           9.6021   -0.0055    0.0000 H       1  UNL1        0.0230
     44 H          10.4499    0.2182    0.0000 H       1  UNL1        0.0230
     45 H          10.2262    1.0660    0.0000 H       1  UNL1        0.0230
     46 H           5.8663    3.8623    0.0000 H       1  UNL1        0.2094
     47 H           4.1164   -3.8623    0.0000 H       1  UNL1        0.2923
     48 H           3.4918    0.5102    0.0000 H       1  UNL1        0.0660
     49 H           2.8742    1.1326    0.0000 H       1  UNL1        0.0660
     50 H           2.2518    0.5150    0.0000 H       1  UNL1        0.0660
     51 H           2.3079   -1.5009    0.0000 H       1  UNL1        0.0660
     52 H           1.4619   -1.7311    0.0000 H       1  UNL1        0.0660
     53 H           1.6921   -2.5771    0.0000 H       1  UNL1        0.0660
@<TRIPOS>BOND
     1     1    17    1
     2     1    46    1
     3     2    20    1
     4     2    47    1
     5     3    21    1
     6     3    23    1
     7     4    22    1
     8     4    24    1
     9     5     8    1
    10     5    10    1
    11     5    11    1
    12     6     7    1
    13     6     9    1
    14     6    13    1
    15     6    25    1
    16     7    10    1
    17     7    14    1
    18     7    26    1
    19     8     9    1
    20     8    12    1
    21     8    27    1
    22     9    28    1
    23     9    29    1
    24    10    30    1
    25    10    31    1
    26    11    15    1
    27    11    32    1
    28    11    33    1
    29    12    16   ar
    30    12    18   ar
    31    13    17    1
    32    13    34    1
    33    13    35    1
    34    14    19    1
    35    14    36    1
    36    14    37    1
    37    15    16    1
    38    15    38    1
    39    15    39    1
    40    16    20   ar
    41    17    40    1
    42    17    41    1
    43    18    21   ar
    44    18    42    1
    45    19    43    1
    46    19    44    1
    47    19    45    1
    48    20    22   ar
    49    21    22   ar
    50    23    48    1
    51    23    49    1
    52    23    50    1
    53    24    51    1
    54    24    52    1
    55    24    53    1
