@<TRIPOS>MOLECULE
IMPHY014261
 23 23 0 0 0
SMALL
GASTEIGER

@<TRIPOS>ATOM
      1 O           2.5369   -0.1900    0.0000 O.3     1  UNL1       -0.5065
      2 O           5.1350    2.3100    0.0000 O.3     1  UNL1       -0.4677
      3 O           6.0010   -2.1900    0.0000 O.3     1  UNL1       -0.5068
      4 O           6.0010    0.8100    0.0000 O.2     1  UNL1       -0.2505
      5 C           4.2690   -0.1900    0.0000 C.ar    1  UNL1        0.0081
      6 C           4.2690    0.8100    0.0000 C.3     1  UNL1        0.0736
      7 C           3.4030   -0.6900    0.0000 C.ar    1  UNL1        0.1208
      8 C           5.1350   -0.6900    0.0000 C.ar    1  UNL1       -0.0130
      9 C           5.1350   -1.6900    0.0000 C.ar    1  UNL1        0.1174
     10 C           3.4030   -1.6900    0.0000 C.ar    1  UNL1       -0.0164
     11 C           4.2690   -2.1900    0.0000 C.ar    1  UNL1       -0.0167
     12 C           5.1350    1.3100    0.0000 C.2     1  UNL1        0.3113
     13 C           6.0010    2.8100    0.0000 C.3     1  UNL1        0.0817
     14 H           4.0569    1.3926    0.0000 H       1  UNL1        0.0427
     15 H           3.6584    0.7023    0.0000 H       1  UNL1        0.0427
     16 H           5.6720   -0.3800    0.0000 H       1  UNL1        0.0658
     17 H           2.8660   -2.0000    0.0000 H       1  UNL1        0.0655
     18 H           4.2690   -2.8100    0.0000 H       1  UNL1        0.0655
     19 H           2.0000   -0.5000    0.0000 H       1  UNL1        0.2921
     20 H           6.0010   -2.8100    0.0000 H       1  UNL1        0.2921
     21 H           6.3110    2.2731    0.0000 H       1  UNL1        0.0661
     22 H           6.5380    3.1200    0.0000 H       1  UNL1        0.0661
     23 H           5.6910    3.3469    0.0000 H       1  UNL1        0.0661
@<TRIPOS>BOND
     1     1     7    1
     2     1    19    1
     3     2    12    1
     4     2    13    1
     5     3     9    1
     6     3    20    1
     7     4    12    2
     8     5     6    1
     9     5     7   ar
    10     5     8   ar
    11     6    12    1
    12     6    14    1
    13     6    15    1
    14     7    10   ar
    15     8     9   ar
    16     8    16    1
    17     9    11   ar
    18    10    11   ar
    19    10    17    1
    20    11    18    1
    21    13    21    1
    22    13    22    1
    23    13    23    1
