@<TRIPOS>MOLECULE
IMPHY017529
 38 38 0 0 0
SMALL
GASTEIGER

@<TRIPOS>ATOM
      1 O           4.5691   -1.9139    0.0000 O.2     1  UNL1       -0.4640
      2 O           6.3582    2.1739    0.0000 O.2     1  UNL1       -0.2977
      3 C           3.7601   -0.3261    0.0000 C.3     1  UNL1        0.0233
      4 C           3.7601    0.6739    0.0000 C.3     1  UNL1       -0.0406
      5 C           3.7601   -1.3261    0.0000 C.ar    1  UNL1        0.1137
      6 C           4.6261    1.1739    0.0000 C.3     1  UNL1       -0.0455
      7 C           4.7601   -0.3261    0.0000 C.3     1  UNL1       -0.0529
      8 C           2.7601   -0.3261    0.0000 C.3     1  UNL1       -0.0529
      9 C           2.9511   -1.9139    0.0000 C.ar    1  UNL1       -0.0088
     10 C           4.6261    2.1739    0.0000 C.3     1  UNL1        0.0056
     11 C           3.2601   -2.8649    0.0000 C.ar    1  UNL1       -0.0178
     12 C           4.2601   -2.8649    0.0000 C.ar    1  UNL1        0.1025
     13 C           2.0000   -1.6048    0.0000 C.3     1  UNL1       -0.0364
     14 C           5.4921    2.6739    0.0000 C.2     1  UNL1        0.1303
     15 C           4.8479   -3.6739    0.0000 C.3     1  UNL1       -0.0064
     16 C           5.4921    3.6739    0.0000 C.3     1  UNL1       -0.0061
     17 H           3.5480    1.2565    0.0000 H       1  UNL1        0.0275
     18 H           3.1495    0.5663    0.0000 H       1  UNL1        0.0275
     19 H           4.8382    0.5913    0.0000 H       1  UNL1        0.0270
     20 H           5.2367    1.2816    0.0000 H       1  UNL1        0.0270
     21 H           4.7601   -0.9461    0.0000 H       1  UNL1        0.0239
     22 H           5.3801   -0.3261    0.0000 H       1  UNL1        0.0239
     23 H           4.7601    0.2939    0.0000 H       1  UNL1        0.0239
     24 H           2.7601    0.2939    0.0000 H       1  UNL1        0.0239
     25 H           2.1401   -0.3261    0.0000 H       1  UNL1        0.0239
     26 H           2.7601   -0.9461    0.0000 H       1  UNL1        0.0239
     27 H           4.4140    2.7565    0.0000 H       1  UNL1        0.0341
     28 H           4.0155    2.0663    0.0000 H       1  UNL1        0.0341
     29 H           2.8956   -3.3665    0.0000 H       1  UNL1        0.0654
     30 H           2.1916   -1.0152    0.0000 H       1  UNL1        0.0279
     31 H           1.4103   -1.4132    0.0000 H       1  UNL1        0.0279
     32 H           1.8084   -2.1945    0.0000 H       1  UNL1        0.0279
     33 H           4.3463   -4.0384    0.0000 H       1  UNL1        0.0308
     34 H           5.2123   -4.1755    0.0000 H       1  UNL1        0.0308
     35 H           5.3494   -3.3095    0.0000 H       1  UNL1        0.0308
     36 H           6.1121    3.6739    0.0000 H       1  UNL1        0.0306
     37 H           5.4921    4.2939    0.0000 H       1  UNL1        0.0306
     38 H           4.8721    3.6739    0.0000 H       1  UNL1        0.0306
@<TRIPOS>BOND
     1     1     5   ar
     2     1    12   ar
     3     2    14    2
     4     3     4    1
     5     3     5    1
     6     3     7    1
     7     3     8    1
     8     4     6    1
     9     4    17    1
    10     4    18    1
    11     5     9   ar
    12     6    10    1
    13     6    19    1
    14     6    20    1
    15     7    21    1
    16     7    22    1
    17     7    23    1
    18     8    24    1
    19     8    25    1
    20     8    26    1
    21     9    11   ar
    22     9    13    1
    23    10    14    1
    24    10    27    1
    25    10    28    1
    26    11    12   ar
    27    11    29    1
    28    12    15    1
    29    13    30    1
    30    13    31    1
    31    13    32    1
    32    14    16    1
    33    15    33    1
    34    15    34    1
    35    15    35    1
    36    16    36    1
    37    16    37    1
    38    16    38    1
