@<TRIPOS>MOLECULE
IMPHY008649
 74 76 0 0 0
SMALL
GASTEIGER

@<TRIPOS>ATOM
      1 O          10.7243    3.2775    0.0000 O.3     1  UNL1       -0.3885
      2 O           6.3301   -2.2500    0.0000 O.3     1  UNL1       -0.5055
      3 O           4.5981    0.7500    0.0000 O.3     1  UNL1       -0.5055
      4 O           2.8660   -2.2500    0.0000 O.3     1  UNL1       -0.5051
      5 O           2.0000   -0.7500    0.0000 O.2     1  UNL1       -0.2955
      6 O           3.7320   -3.7500    0.0000 O.2     1  UNL1       -0.2955
      7 C           7.1962    1.2500    0.0000 C.3     1  UNL1       -0.0074
      8 C           6.3301    0.7500    0.0000 C.3     1  UNL1       -0.0249
      9 C           7.1962    2.2500    0.0000 C.2     1  UNL1       -0.0641
     10 C           8.0901    0.7153    0.0000 C.3     1  UNL1       -0.0430
     11 C           5.4641    1.2500    0.0000 C.3     1  UNL1       -0.0483
     12 C           6.3301    2.7500    0.0000 C.3     1  UNL1       -0.0222
     13 C           6.3301   -0.2500    0.0000 C.3     1  UNL1       -0.0050
     14 C           5.4641    2.2500    0.0000 C.3     1  UNL1       -0.0465
     15 C           8.9962    2.2708    0.0000 C.3     1  UNL1        0.0057
     16 C           8.9962    1.2292    0.0000 C.3     1  UNL1       -0.0434
     17 C           7.1962    0.2500    0.0000 C.3     1  UNL1       -0.0556
     18 C           8.0901    2.7847    0.0000 C.2     1  UNL1       -0.0782
     19 C           7.1962   -0.7500    0.0000 C.3     1  UNL1       -0.0433
     20 C           9.8602    2.7742    0.0000 C.3     1  UNL1        0.0667
     21 C           6.3301    3.7500    0.0000 C.3     1  UNL1       -0.0587
     22 C           5.4641   -0.7500    0.0000 C.ar    1  UNL1        0.0404
     23 C           8.1810   -0.9236    0.0000 C.3     1  UNL1       -0.0462
     24 C          10.3636    1.9101    0.0000 C.3     1  UNL1       -0.0358
     25 C           9.3569    3.6382    0.0000 C.3     1  UNL1       -0.0358
     26 C           5.4641   -1.7500    0.0000 C.ar    1  UNL1        0.1375
     27 C           4.5981   -0.2500    0.0000 C.ar    1  UNL1        0.1375
     28 C           8.5230   -1.8633    0.0000 C.3     1  UNL1       -0.0626
     29 C           8.8238   -0.1576    0.0000 C.3     1  UNL1       -0.0626
     30 C           4.5981   -2.2500    0.0000 C.ar    1  UNL1        0.0980
     31 C           3.7320   -0.7500    0.0000 C.ar    1  UNL1        0.0980
     32 C           3.7320   -1.7500    0.0000 C.ar    1  UNL1        0.1443
     33 C           2.8660   -0.2500    0.0000 C.2     1  UNL1        0.1573
     34 C           4.5981   -3.2500    0.0000 C.2     1  UNL1        0.1573
     35 H           5.7932    0.4400    0.0000 H       1  UNL1        0.0315
     36 H           7.6855    0.2456    0.0000 H       1  UNL1        0.0274
     37 H           8.4837    0.2363    0.0000 H       1  UNL1        0.0274
     38 H           4.8535    1.3577    0.0000 H       1  UNL1        0.0269
     39 H           5.2520    0.6674    0.0000 H       1  UNL1        0.0269
     40 H           6.8671    3.0600    0.0000 H       1  UNL1        0.0343
     41 H           6.8671    0.0600    0.0000 H       1  UNL1        0.0354
     42 H           5.2520    2.8326    0.0000 H       1  UNL1        0.0271
     43 H           4.8535    2.1423    0.0000 H       1  UNL1        0.0271
     44 H           9.5337    1.9618    0.0000 H       1  UNL1        0.0371
     45 H           9.2052    0.6455    0.0000 H       1  UNL1        0.0272
     46 H           9.6070    1.3353    0.0000 H       1  UNL1        0.0272
     47 H           6.5762    0.2500    0.0000 H       1  UNL1        0.0238
     48 H           7.1962   -0.3700    0.0000 H       1  UNL1        0.0238
     49 H           7.8162    0.2500    0.0000 H       1  UNL1        0.0238
     50 H           8.0829    3.4046    0.0000 H       1  UNL1        0.0576
     51 H           6.6988   -1.1202    0.0000 H       1  UNL1        0.0274
     52 H           7.4082   -0.1674    0.0000 H       1  UNL1        0.0274
     53 H           6.9501    3.7500    0.0000 H       1  UNL1        0.0235
     54 H           6.3301    4.3700    0.0000 H       1  UNL1        0.0235
     55 H           5.7101    3.7500    0.0000 H       1  UNL1        0.0235
     56 H           7.7824   -1.3986    0.0000 H       1  UNL1        0.0296
     57 H           9.8278    1.5980    0.0000 H       1  UNL1        0.0257
     58 H          10.6757    1.3743    0.0000 H       1  UNL1        0.0257
     59 H          10.8993    2.2221    0.0000 H       1  UNL1        0.0257
     60 H           9.8927    3.9503    0.0000 H       1  UNL1        0.0257
     61 H           9.0448    4.1740    0.0000 H       1  UNL1        0.0257
     62 H           8.8212    3.3262    0.0000 H       1  UNL1        0.0257
     63 H          11.2625    2.9696    0.0000 H       1  UNL1        0.2102
     64 H           7.9404   -2.0754    0.0000 H       1  UNL1        0.0232
     65 H           8.7350   -2.4460    0.0000 H       1  UNL1        0.0232
     66 H           9.1056   -1.6513    0.0000 H       1  UNL1        0.0232
     67 H           9.2987   -0.5561    0.0000 H       1  UNL1        0.0232
     68 H           9.2223    0.3173    0.0000 H       1  UNL1        0.0232
     69 H           8.3488    0.2409    0.0000 H       1  UNL1        0.0232
     70 H           6.3301   -2.8700    0.0000 H       1  UNL1        0.2922
     71 H           4.0611    1.0600    0.0000 H       1  UNL1        0.2922
     72 H           2.8660    0.3700    0.0000 H       1  UNL1        0.1084
     73 H           5.1350   -3.5600    0.0000 H       1  UNL1        0.1084
     74 H           2.8660   -2.8700    0.0000 H       1  UNL1        0.2922
@<TRIPOS>BOND
     1     1    20    1
     2     1    63    1
     3     2    26    1
     4     2    70    1
     5     3    27    1
     6     3    71    1
     7     4    32    1
     8     4    74    1
     9     5    33    2
    10     6    34    2
    11     7     8    1
    12     7     9    1
    13     7    10    1
    14     7    17    1
    15     8    11    1
    16     8    13    1
    17     8    35    1
    18     9    12    1
    19     9    18    2
    20    10    16    1
    21    10    36    1
    22    10    37    1
    23    11    14    1
    24    11    38    1
    25    11    39    1
    26    12    14    1
    27    12    21    1
    28    12    40    1
    29    13    19    1
    30    13    22    1
    31    13    41    1
    32    14    42    1
    33    14    43    1
    34    15    16    1
    35    15    18    1
    36    15    20    1
    37    15    44    1
    38    16    45    1
    39    16    46    1
    40    17    47    1
    41    17    48    1
    42    17    49    1
    43    18    50    1
    44    19    23    1
    45    19    51    1
    46    19    52    1
    47    20    24    1
    48    20    25    1
    49    21    53    1
    50    21    54    1
    51    21    55    1
    52    22    26   ar
    53    22    27   ar
    54    23    28    1
    55    23    29    1
    56    23    56    1
    57    24    57    1
    58    24    58    1
    59    24    59    1
    60    25    60    1
    61    25    61    1
    62    25    62    1
    63    26    30   ar
    64    27    31   ar
    65    28    64    1
    66    28    65    1
    67    28    66    1
    68    29    67    1
    69    29    68    1
    70    29    69    1
    71    30    32   ar
    72    30    34    1
    73    31    32   ar
    74    31    33    1
    75    33    72    1
    76    34    73    1
