@<TRIPOS>MOLECULE
IMPHY002022
 56 57 0 0 0
SMALL
GASTEIGER

@<TRIPOS>ATOM
      1 O           7.8479    3.7487    0.0000 O.3     1  UNL1       -0.3945
      2 O           2.0000   -3.6692    0.0000 O.3     1  UNL1       -0.3910
      3 C           5.4641    1.3308    0.0000 C.3     1  UNL1       -0.0222
      4 C           5.4641    2.3308    0.0000 C.3     1  UNL1       -0.0273
      5 C           6.3580    2.8654    0.0000 C.3     1  UNL1       -0.0056
      6 C           4.5981    0.8308    0.0000 C.3     1  UNL1       -0.0142
      7 C           6.3580    0.7961    0.0000 C.3     1  UNL1       -0.0468
      8 C           4.5981    2.8308    0.0000 C.3     1  UNL1       -0.0454
      9 C           7.2641    2.3516    0.0000 C.3     1  UNL1       -0.0452
     10 C           7.2641    1.3100    0.0000 C.3     1  UNL1       -0.0520
     11 C           5.4641    0.3308    0.0000 C.3     1  UNL1       -0.0587
     12 C           3.7320    2.3308    0.0000 C.3     1  UNL1       -0.0314
     13 C           3.7320    1.3308    0.0000 C.2     1  UNL1       -0.0730
     14 C           6.8480    3.7372    0.0000 C.3     1  UNL1        0.0498
     15 C           4.5981   -0.1692    0.0000 C.3     1  UNL1       -0.0423
     16 C           5.8481    3.7256    0.0000 C.3     1  UNL1       -0.0572
     17 C           3.7320   -0.6692    0.0000 C.3     1  UNL1       -0.0314
     18 C           2.8660    0.8308    0.0000 C.2     1  UNL1       -0.0992
     19 C           3.7320   -1.6692    0.0000 C.2     1  UNL1       -0.0744
     20 C           4.5981   -2.1692    0.0000 C.3     1  UNL1       -0.0437
     21 C           2.8660   -2.1692    0.0000 C.2     1  UNL1       -0.0600
     22 C           2.8660   -3.1692    0.0000 C.3     1  UNL1        0.0626
     23 H           5.4576    3.1808    0.0000 H       1  UNL1        0.0312
     24 H           4.0611    0.5208    0.0000 H       1  UNL1        0.0351
     25 H           5.9534    0.3263    0.0000 H       1  UNL1        0.0271
     26 H           6.7517    0.3171    0.0000 H       1  UNL1        0.0271
     27 H           4.9966    3.3057    0.0000 H       1  UNL1        0.0271
     28 H           4.1996    3.3057    0.0000 H       1  UNL1        0.0271
     29 H           7.8750    2.2455    0.0000 H       1  UNL1        0.0271
     30 H           7.4732    2.9353    0.0000 H       1  UNL1        0.0271
     31 H           7.4732    0.7263    0.0000 H       1  UNL1        0.0266
     32 H           7.8750    1.4160    0.0000 H       1  UNL1        0.0266
     33 H           4.8441    0.3308    0.0000 H       1  UNL1        0.0235
     34 H           5.4641   -0.2892    0.0000 H       1  UNL1        0.0235
     35 H           6.0841    0.3308    0.0000 H       1  UNL1        0.0235
     36 H           3.5200    2.9134    0.0000 H       1  UNL1        0.0310
     37 H           3.1215    2.2231    0.0000 H       1  UNL1        0.0310
     38 H           6.9486    4.3490    0.0000 H       1  UNL1        0.0562
     39 H           6.2630    3.9425    0.0000 H       1  UNL1        0.0562
     40 H           4.8101   -0.7518    0.0000 H       1  UNL1        0.0274
     41 H           5.2087   -0.0616    0.0000 H       1  UNL1        0.0274
     42 H           6.3814    4.0418    0.0000 H       1  UNL1        0.0236
     43 H           5.5319    4.2589    0.0000 H       1  UNL1        0.0236
     44 H           5.3148    3.4094    0.0000 H       1  UNL1        0.0236
     45 H           3.5200   -0.0866    0.0000 H       1  UNL1        0.0310
     46 H           3.1215   -0.7769    0.0000 H       1  UNL1        0.0310
     47 H           2.3291    1.1408    0.0000 H       1  UNL1        0.0534
     48 H           2.8660    0.2108    0.0000 H       1  UNL1        0.0534
     49 H           8.1517    4.2892    0.0000 H       1  UNL1        0.2094
     50 H           4.2881   -2.7062    0.0000 H       1  UNL1        0.0274
     51 H           5.1350   -2.4792    0.0000 H       1  UNL1        0.0274
     52 H           4.9081   -1.6323    0.0000 H       1  UNL1        0.0274
     53 H           2.3291   -1.8592    0.0000 H       1  UNL1        0.0594
     54 H           3.0781   -3.7518    0.0000 H       1  UNL1        0.0601
     55 H           3.4766   -3.0616    0.0000 H       1  UNL1        0.0601
     56 H           2.0000   -4.2892    0.0000 H       1  UNL1        0.2098
@<TRIPOS>BOND
     1     1    14    1
     2     1    49    1
     3     2    22    1
     4     2    56    1
     5     3     4    1
     6     3     6    1
     7     3     7    1
     8     3    11    1
     9     4     5    1
    10     4     8    1
    11     4    23    1
    12     5     9    1
    13     5    14    1
    14     5    16    1
    15     6    13    1
    16     6    15    1
    17     6    24    1
    18     7    10    1
    19     7    25    1
    20     7    26    1
    21     8    12    1
    22     8    27    1
    23     8    28    1
    24     9    10    1
    25     9    29    1
    26     9    30    1
    27    10    31    1
    28    10    32    1
    29    11    33    1
    30    11    34    1
    31    11    35    1
    32    12    13    1
    33    12    36    1
    34    12    37    1
    35    13    18    2
    36    14    38    1
    37    14    39    1
    38    15    17    1
    39    15    40    1
    40    15    41    1
    41    16    42    1
    42    16    43    1
    43    16    44    1
    44    17    19    1
    45    17    45    1
    46    17    46    1
    47    18    47    1
    48    18    48    1
    49    19    20    1
    50    19    21    2
    51    20    50    1
    52    20    51    1
    53    20    52    1
    54    21    22    1
    55    21    53    1
    56    22    54    1
    57    22    55    1
