@<TRIPOS>MOLECULE
IMPHY004497
 40 42 0 0 0
SMALL
GASTEIGER

@<TRIPOS>ATOM
      1 O           7.2785   -2.0346    0.0000 O.3     1  UNL1       -0.5057
      2 O           7.2785    2.0346    0.0000 O.3     1  UNL1       -0.5052
      3 O           5.5301   -2.0000    0.0000 O.2     1  UNL1       -0.2865
      4 O           5.5301    2.0000    0.0000 O.2     1  UNL1       -0.2865
      5 O           2.0000   -1.0241    0.0000 O.3     1  UNL1       -0.4914
      6 O           2.0000    1.0241    0.0000 O.3     1  UNL1       -0.4914
      7 O           9.9282    0.5275    0.0000 O.3     1  UNL1       -0.4770
      8 O           9.0564    2.0241    0.0000 O.2     1  UNL1       -0.2450
      9 C           6.3961   -0.5000    0.0000 C.ar    1  UNL1        0.0782
     10 C           6.3961    0.5000    0.0000 C.ar    1  UNL1        0.0788
     11 C           4.6641   -0.5000    0.0000 C.ar    1  UNL1        0.0369
     12 C           4.6641    0.5000    0.0000 C.ar    1  UNL1        0.0369
     13 C           5.5301   -1.0000    0.0000 C.2     1  UNL1        0.1982
     14 C           5.5301    1.0000    0.0000 C.2     1  UNL1        0.1983
     15 C           7.2901   -1.0347    0.0000 C.ar    1  UNL1        0.1322
     16 C           7.2901    1.0347    0.0000 C.ar    1  UNL1        0.1428
     17 C           8.1962   -0.5208    0.0000 C.ar    1  UNL1        0.0092
     18 C           8.1962    0.5208    0.0000 C.ar    1  UNL1        0.1072
     19 C           3.7702   -1.0347    0.0000 C.ar    1  UNL1       -0.0048
     20 C           3.7702    1.0347    0.0000 C.ar    1  UNL1       -0.0048
     21 C           2.8641   -0.5208    0.0000 C.ar    1  UNL1        0.1622
     22 C           2.8641    0.5208    0.0000 C.ar    1  UNL1        0.1622
     23 C           9.0602   -1.0241    0.0000 C.3     1  UNL1       -0.0353
     24 C           9.0602    1.0241    0.0000 C.2     1  UNL1        0.3408
     25 C           2.0038   -2.0241    0.0000 C.3     1  UNL1        0.0790
     26 C           2.0038    2.0241    0.0000 C.3     1  UNL1        0.0790
     27 H           3.7773   -1.6546    0.0000 H       1  UNL1        0.0663
     28 H           3.7773    1.6546    0.0000 H       1  UNL1        0.0663
     29 H           8.7482   -1.5599    0.0000 H       1  UNL1        0.0279
     30 H           9.5960   -1.3362    0.0000 H       1  UNL1        0.0279
     31 H           9.3723   -0.4884    0.0000 H       1  UNL1        0.0279
     32 H           7.8118   -2.3508    0.0000 H       1  UNL1        0.2922
     33 H           7.8118    2.3508    0.0000 H       1  UNL1        0.2922
     34 H           1.3839   -2.0265    0.0000 H       1  UNL1        0.0660
     35 H           2.0062   -2.6441    0.0000 H       1  UNL1        0.0660
     36 H           2.6238   -2.0218    0.0000 H       1  UNL1        0.0660
     37 H           2.6238    2.0218    0.0000 H       1  UNL1        0.0660
     38 H           2.0062    2.6441    0.0000 H       1  UNL1        0.0660
     39 H           1.3839    2.0265    0.0000 H       1  UNL1        0.0660
     40 H          10.4639    0.8396    0.0000 H       1  UNL1        0.2954
@<TRIPOS>BOND
     1     1    15    1
     2     1    32    1
     3     2    16    1
     4     2    33    1
     5     3    13    2
     6     4    14    2
     7     5    21    1
     8     5    25    1
     9     6    22    1
    10     6    26    1
    11     7    24    1
    12     7    40    1
    13     8    24    2
    14     9    10   ar
    15     9    13    1
    16     9    15   ar
    17    10    14    1
    18    10    16   ar
    19    11    12   ar
    20    11    13    1
    21    11    19   ar
    22    12    14    1
    23    12    20   ar
    24    15    17   ar
    25    16    18   ar
    26    17    18   ar
    27    17    23    1
    28    18    24    1
    29    19    21   ar
    30    19    27    1
    31    20    22   ar
    32    20    28    1
    33    21    22   ar
    34    23    29    1
    35    23    30    1
    36    23    31    1
    37    25    34    1
    38    25    35    1
    39    25    36    1
    40    26    37    1
    41    26    38    1
    42    26    39    1
