@<TRIPOS>MOLECULE
IMPHY012297
 43 46 0 0 0
SMALL
GASTEIGER

@<TRIPOS>ATOM
      1 O           5.5103    1.5072    0.0000 O.3     1  UNL1       -0.4908
      2 O           7.2762    2.5450    0.0000 O.3     1  UNL1       -0.4914
      3 O           6.3981   -3.0242    0.0000 O.2     1  UNL1       -0.2850
      4 O           2.8680   -0.0001    0.0000 O.3     1  UNL1       -0.4914
      5 O           2.8680   -2.0484    0.0000 O.3     1  UNL1       -0.4914
      6 N           8.1223   -2.0212    0.0000 N.ar    1  UNL1       -0.2511
      7 C           6.3981   -0.0242    0.0000 C.ar    1  UNL1        0.0381
      8 C           7.2641   -0.5242    0.0000 C.ar    1  UNL1        0.0227
      9 C           5.5320   -0.5242    0.0000 C.ar    1  UNL1        0.0009
     10 C           5.5320   -1.5242    0.0000 C.ar    1  UNL1        0.0353
     11 C           7.2641   -1.5242    0.0000 C.ar    1  UNL1        0.1193
     12 C           8.1741   -0.0174    0.0000 C.ar    1  UNL1       -0.0100
     13 C           6.3820    1.0173    0.0000 C.ar    1  UNL1        0.1698
     14 C           6.3981   -2.0242    0.0000 C.2     1  UNL1        0.2125
     15 C           4.6381    0.0104    0.0000 C.ar    1  UNL1       -0.0078
     16 C           7.2800    1.5450    0.0000 C.ar    1  UNL1        0.1627
     17 C           8.1821    1.0242    0.0000 C.ar    1  UNL1       -0.0084
     18 C           4.6381   -2.0589    0.0000 C.ar    1  UNL1       -0.0048
     19 C           9.0134   -0.5456    0.0000 C.ar    1  UNL1       -0.0357
     20 C           3.7320   -0.5034    0.0000 C.ar    1  UNL1        0.1621
     21 C           3.7320   -1.5450    0.0000 C.ar    1  UNL1        0.1622
     22 C           8.9878   -1.5370    0.0000 C.ar    1  UNL1        0.0290
     23 C           5.4987    2.5072    0.0000 C.3     1  UNL1        0.0790
     24 C           8.1403    3.0484    0.0000 C.3     1  UNL1        0.0790
     25 C           2.0000   -0.4967    0.0000 C.3     1  UNL1        0.0790
     26 C           2.8718   -3.0484    0.0000 C.3     1  UNL1        0.0790
     27 H           4.6453    0.6304    0.0000 H       1  UNL1        0.0662
     28 H           8.7203    1.3322    0.0000 H       1  UNL1        0.0661
     29 H           4.6453   -2.6788    0.0000 H       1  UNL1        0.0663
     30 H           9.5600   -0.2529    0.0000 H       1  UNL1        0.0639
     31 H           9.5185   -1.8575    0.0000 H       1  UNL1        0.0830
     32 H           6.1187    2.5143    0.0000 H       1  UNL1        0.0660
     33 H           5.4915    3.1271    0.0000 H       1  UNL1        0.0660
     34 H           4.8787    2.5000    0.0000 H       1  UNL1        0.0660
     35 H           8.4523    2.5126    0.0000 H       1  UNL1        0.0660
     36 H           8.6760    3.3604    0.0000 H       1  UNL1        0.0660
     37 H           7.8282    3.5841    0.0000 H       1  UNL1        0.0660
     38 H           1.6921    0.0414    0.0000 H       1  UNL1        0.0660
     39 H           1.4619   -0.8047    0.0000 H       1  UNL1        0.0660
     40 H           2.3079   -1.0349    0.0000 H       1  UNL1        0.0660
     41 H           2.2518   -3.0508    0.0000 H       1  UNL1        0.0660
     42 H           2.8742   -3.6684    0.0000 H       1  UNL1        0.0660
     43 H           3.4918   -3.0460    0.0000 H       1  UNL1        0.0660
@<TRIPOS>BOND
     1     1    13    1
     2     1    23    1
     3     2    16    1
     4     2    24    1
     5     3    14    2
     6     4    20    1
     7     4    25    1
     8     5    21    1
     9     5    26    1
    10     6    11   ar
    11     6    22   ar
    12     7     8   ar
    13     7     9    1
    14     7    13   ar
    15     8    11   ar
    16     8    12   ar
    17     9    10   ar
    18     9    15   ar
    19    10    14    1
    20    10    18   ar
    21    11    14    1
    22    12    17   ar
    23    12    19   ar
    24    13    16   ar
    25    15    20   ar
    26    15    27    1
    27    16    17   ar
    28    17    28    1
    29    18    21   ar
    30    18    29    1
    31    19    22   ar
    32    19    30    1
    33    20    21   ar
    34    22    31    1
    35    23    32    1
    36    23    33    1
    37    23    34    1
    38    24    35    1
    39    24    36    1
    40    24    37    1
    41    25    38    1
    42    25    39    1
    43    25    40    1
    44    26    41    1
    45    26    42    1
    46    26    43    1
