@<TRIPOS>MOLECULE
IMPHY004579
 41 44 0 0 0
SMALL
GASTEIGER

@<TRIPOS>ATOM
      1 O           5.9065    0.5019    0.0000 O.2     1  UNL1       -0.4537
      2 O           8.0505    2.5704    0.0000 O.2     1  UNL1       -0.4214
      3 O          10.6901    0.2262    0.0000 O.3     1  UNL1       -0.5064
      4 O           6.7634    3.7293    0.0000 O.2     1  UNL1       -0.2444
      5 O           2.4170    1.4061    0.0000 O.3     1  UNL1       -0.5066
      6 C           6.7123    1.0841    0.0000 C.ar    1  UNL1        0.1538
      7 C           7.6904    0.8762    0.0000 C.ar    1  UNL1        0.0609
      8 C           6.4033    2.0351    0.0000 C.ar    1  UNL1        0.1128
      9 C           5.4092    2.0326    0.0000 C.ar    1  UNL1        0.0351
     10 C           8.3596    1.6193    0.0000 C.ar    1  UNL1        0.1461
     11 C           9.0142   -0.3437    0.0000 C.ar    1  UNL1       -0.0013
     12 C           5.1028    1.0869    0.0000 C.ar    1  UNL1        0.1400
     13 C           7.9970   -0.1193    0.0000 C.ar    1  UNL1       -0.0406
     14 C           9.3195   -1.2960    0.0000 C.3     1  UNL1       -0.0058
     15 C           7.0724    2.7783    0.0000 C.ar    1  UNL1        0.3488
     16 C           9.7112    0.4303    0.0000 C.ar    1  UNL1        0.1238
     17 C           9.3816    1.4185    0.0000 C.ar    1  UNL1        0.0233
     18 C           4.7276    2.8121    0.0000 C.ar    1  UNL1       -0.0467
     19 C           4.0936    0.8551    0.0000 C.ar    1  UNL1        0.0228
     20 C           8.6475   -2.0365    0.0000 C.2     1  UNL1       -0.0809
     21 C           3.7133    2.6037    0.0000 C.ar    1  UNL1       -0.0194
     22 C           3.3942    1.6186    0.0000 C.ar    1  UNL1        0.1204
     23 C           8.9529   -2.9888    0.0000 C.2     1  UNL1       -0.0793
     24 C           8.2809   -3.7293    0.0000 C.3     1  UNL1       -0.0440
     25 C           9.9302   -3.2005    0.0000 C.3     1  UNL1       -0.0440
     26 H           7.5768   -0.5752    0.0000 H       1  UNL1        0.0630
     27 H           9.6993   -1.7860    0.0000 H       1  UNL1        0.0357
     28 H           9.8681   -1.0070    0.0000 H       1  UNL1        0.0357
     29 H           9.7912    1.8840    0.0000 H       1  UNL1        0.0691
     30 H           4.9255    3.3996    0.0000 H       1  UNL1        0.0626
     31 H           3.9094    0.2631    0.0000 H       1  UNL1        0.0691
     32 H           8.0416   -1.9053    0.0000 H       1  UNL1        0.0575
     33 H           3.2998    3.0657    0.0000 H       1  UNL1        0.0654
     34 H          11.1032    0.6885    0.0000 H       1  UNL1        0.2921
     35 H           7.8217   -3.3127    0.0000 H       1  UNL1        0.0274
     36 H           7.8642   -4.1885    0.0000 H       1  UNL1        0.0274
     37 H           9.7990   -3.8064    0.0000 H       1  UNL1        0.0274
     38 H          10.5362   -3.3317    0.0000 H       1  UNL1        0.0274
     39 H          10.0615   -2.5945    0.0000 H       1  UNL1        0.0274
     40 H           8.7400   -4.1460    0.0000 H       1  UNL1        0.0274
     41 H           2.0000    1.8649    0.0000 H       1  UNL1        0.2921
@<TRIPOS>BOND
     1     1     6   ar
     2     1    12   ar
     3     2    10   ar
     4     2    15   ar
     5     3    16    1
     6     3    34    1
     7     4    15    2
     8     5    22    1
     9     5    41    1
    10     6     7   ar
    11     6     8   ar
    12     7    10   ar
    13     7    13   ar
    14     8     9   ar
    15     8    15   ar
    16     9    12   ar
    17     9    18   ar
    18    10    17   ar
    19    11    13   ar
    20    11    14    1
    21    11    16   ar
    22    12    19   ar
    23    13    26    1
    24    14    20    1
    25    14    27    1
    26    14    28    1
    27    16    17   ar
    28    17    29    1
    29    18    21   ar
    30    18    30    1
    31    19    22   ar
    32    19    31    1
    33    20    23    2
    34    20    32    1
    35    21    22   ar
    36    21    33    1
    37    23    24    1
    38    23    25    1
    39    24    35    1
    40    24    36    1
    41    24    40    1
    42    25    37    1
    43    25    38    1
    44    25    39    1
