@<TRIPOS>MOLECULE
IMPHY012778
 40 41 0 0 0
SMALL
GASTEIGER

@<TRIPOS>ATOM
      1 O           5.6137   -3.5602    0.0000 O.2     1  UNL1       -0.2968
      2 C           3.2369   -0.2368    0.0000 C.3     1  UNL1       -0.0165
      3 C           3.7147   -2.1854    0.0000 C.3     1  UNL1        0.0318
      4 C           3.9735   -1.2194    0.0000 C.3     1  UNL1       -0.0280
      5 C           2.3420   -2.7774    0.0000 C.3     1  UNL1       -0.0401
      6 C           2.0000   -1.8377    0.0000 C.3     1  UNL1       -0.0484
      7 C           5.3725   -1.7283    0.0000 C.3     1  UNL1        0.0097
      8 C           5.1137   -2.6942    0.0000 C.2     1  UNL1        0.1400
      9 C           3.3415    0.7577    0.0000 C.3     1  UNL1       -0.0430
     10 C           2.3234    0.1699    0.0000 C.3     1  UNL1       -0.0584
     11 C           3.4559   -3.1513    0.0000 C.3     1  UNL1       -0.0523
     12 C           4.2550    1.1644    0.0000 C.3     1  UNL1       -0.0340
     13 C           4.3595    2.1590    0.0000 C.2     1  UNL1       -0.0853
     14 C           5.2731    2.5657    0.0000 C.2     1  UNL1       -0.0796
     15 C           5.3776    3.5602    0.0000 C.3     1  UNL1       -0.0440
     16 C           6.0821    1.9779    0.0000 C.3     1  UNL1       -0.0440
     17 H           3.9595   -1.8393    0.0000 H       1  UNL1        0.0310
     18 H           1.7636   -3.0007    0.0000 H       1  UNL1        0.0275
     19 H           2.5765   -3.3514    0.0000 H       1  UNL1        0.0275
     20 H           1.8057   -1.2489    0.0000 H       1  UNL1        0.0268
     21 H           1.4142   -2.0409    0.0000 H       1  UNL1        0.0268
     22 H           5.9664   -1.9060    0.0000 H       1  UNL1        0.0345
     23 H           5.5674   -1.1397    0.0000 H       1  UNL1        0.0345
     24 H           3.1915    1.3593    0.0000 H       1  UNL1        0.0274
     25 H           2.7230    0.7144    0.0000 H       1  UNL1        0.0274
     26 H           2.5756    0.7363    0.0000 H       1  UNL1        0.0235
     27 H           1.7570    0.4221    0.0000 H       1  UNL1        0.0235
     28 H           2.0712   -0.3965    0.0000 H       1  UNL1        0.0235
     29 H           2.8570   -2.9908    0.0000 H       1  UNL1        0.0239
     30 H           3.2954   -3.7502    0.0000 H       1  UNL1        0.0239
     31 H           4.0548   -3.3118    0.0000 H       1  UNL1        0.0239
     32 H           4.4050    0.5628    0.0000 H       1  UNL1        0.0308
     33 H           4.8735    1.2077    0.0000 H       1  UNL1        0.0308
     34 H           3.8579    2.5234    0.0000 H       1  UNL1        0.0571
     35 H           5.9942    3.4954    0.0000 H       1  UNL1        0.0274
     36 H           5.4424    4.1768    0.0000 H       1  UNL1        0.0274
     37 H           4.7610    3.6250    0.0000 H       1  UNL1        0.0274
     38 H           5.7177    1.4763    0.0000 H       1  UNL1        0.0274
     39 H           6.5837    1.6135    0.0000 H       1  UNL1        0.0274
     40 H           6.4465    2.4795    0.0000 H       1  UNL1        0.0274
@<TRIPOS>BOND
     1     1     8    2
     2     2     3    1
     3     2     4    1
     4     2     9    1
     5     2    10    1
     6     3     5    1
     7     3     8    1
     8     3    11    1
     9     4     6    1
    10     4     7    1
    11     4    17    1
    12     5     6    1
    13     5    18    1
    14     5    19    1
    15     6    20    1
    16     6    21    1
    17     7     8    1
    18     7    22    1
    19     7    23    1
    20     9    12    1
    21     9    24    1
    22     9    25    1
    23    10    26    1
    24    10    27    1
    25    10    28    1
    26    11    29    1
    27    11    30    1
    28    11    31    1
    29    12    13    1
    30    12    32    1
    31    12    33    1
    32    13    14    2
    33    13    34    1
    34    14    15    1
    35    14    16    1
    36    15    35    1
    37    15    36    1
    38    15    37    1
    39    16    38    1
    40    16    39    1
    41    16    40    1
