@<TRIPOS>MOLECULE
IMPHY000370
 30 32 0 0 0
SMALL
GASTEIGER

@<TRIPOS>ATOM
      1 O           3.2020   -0.1832    0.0000 O.3     1  UNL1       -0.3685
      2 O           4.5152    1.8030    0.0000 O.2     1  UNL1       -0.2759
      3 N           4.2017   -1.5629    0.0000 N.3     1  UNL1       -0.2925
      4 N           3.1139    0.7850    0.0000 N.am    1  UNL1       -0.2976
      5 C           3.3927   -0.9751    0.0000 C.3     1  UNL1        0.0577
      6 C           3.7017   -0.0241    0.0000 C.3     1  UNL1        0.0709
      7 C           2.5900   -1.5615    0.0000 C.3     1  UNL1        0.0776
      8 C           4.7017   -0.0241    0.0000 C.3     1  UNL1        0.0918
      9 C           5.0107   -0.9751    0.0000 C.3     1  UNL1        0.0274
     10 C           2.8980   -2.5067    0.0000 C.3     1  UNL1       -0.0122
     11 C           3.8921   -2.5075    0.0000 C.3     1  UNL1        0.0018
     12 C           2.1194    0.6804    0.0000 C.3     1  UNL1        0.0036
     13 C           3.5207    1.6985    0.0000 C.2     1  UNL1        0.2126
     14 C           2.9329    2.5075    0.0000 C.3     1  UNL1        0.0124
     15 H           2.5756   -0.7408    0.0000 H       1  UNL1        0.0507
     16 H           3.9832    0.5284    0.0000 H       1  UNL1        0.0543
     17 H           1.7811   -1.3002    0.0000 H       1  UNL1        0.0613
     18 H           5.2013    0.6636    0.0000 H       1  UNL1        0.0628
     19 H           5.3207   -1.5120    0.0000 H       1  UNL1        0.0453
     20 H           5.5771   -0.7229    0.0000 H       1  UNL1        0.0453
     21 H           2.2916   -2.6357    0.0000 H       1  UNL1        0.0303
     22 H           2.9626   -3.1233    0.0000 H       1  UNL1        0.0303
     23 H           3.8264   -3.1240    0.0000 H       1  UNL1        0.0427
     24 H           4.4983   -2.6376    0.0000 H       1  UNL1        0.0427
     25 H           2.0546    1.2970    0.0000 H       1  UNL1        0.0429
     26 H           1.5028    0.6156    0.0000 H       1  UNL1        0.0429
     27 H           2.1842    0.0638    0.0000 H       1  UNL1        0.0429
     28 H           3.4345    2.8720    0.0000 H       1  UNL1        0.0323
     29 H           2.5684    3.0091    0.0000 H       1  UNL1        0.0323
     30 H           2.4313    2.1431    0.0000 H       1  UNL1        0.0323
@<TRIPOS>BOND
     1     1     7    1
     2     1     8    1
     3     2    13    2
     4     3     5    1
     5     3     9    1
     6     3    11    1
     7     6     4    1
     8     4    12    1
     9     4    13   am
    10     5     6    1
    11     5     7    1
    12     5    15    1
    13     6     8    1
    14     6    16    1
    15     7    10    1
    16     7    17    1
    17     8     9    1
    18     8    18    1
    19     9    19    1
    20     9    20    1
    21    10    11    1
    22    10    21    1
    23    10    22    1
    24    11    23    1
    25    11    24    1
    26    12    25    1
    27    12    26    1
    28    12    27    1
    29    13    14    1
    30    14    28    1
    31    14    29    1
    32    14    30    1
