@<TRIPOS>MOLECULE
IMPHY008407
 58 61 0 0 0
SMALL
GASTEIGER

@<TRIPOS>ATOM
      1 O           3.9061   -0.3017    0.0000 O.3     1  UNL1       -0.4811
      2 O           7.4260   -0.3017    0.0000 O.2     1  UNL1       -0.4210
      3 O           5.6660    2.7329    0.0000 O.3     1  UNL1       -0.4936
      4 O           7.4144    2.7675    0.0000 O.3     1  UNL1       -0.5051
      5 O           9.1962   -0.2912    0.0000 O.2     1  UNL1       -0.2444
      6 O          11.7884    3.2671    0.0000 O.3     1  UNL1       -0.5068
      7 C           3.0000    0.2121    0.0000 C.3     1  UNL1        0.1235
      8 C           4.8000    0.2329    0.0000 C.ar    1  UNL1        0.1393
      9 C           4.8000    1.2329    0.0000 C.ar    1  UNL1        0.0594
     10 C           5.6660   -0.2671    0.0000 C.ar    1  UNL1        0.0419
     11 C           6.5320    0.2329    0.0000 C.ar    1  UNL1        0.1531
     12 C           6.5320    1.2329    0.0000 C.ar    1  UNL1        0.1022
     13 C           5.6660    1.7329    0.0000 C.ar    1  UNL1        0.1449
     14 C           3.0000    1.2537    0.0000 C.2     1  UNL1       -0.0408
     15 C           3.9061    1.7676    0.0000 C.2     1  UNL1       -0.0478
     16 C           5.6660   -1.2671    0.0000 C.3     1  UNL1       -0.0022
     17 C           2.0000    0.2083    0.0000 C.3     1  UNL1       -0.0215
     18 C           2.5033   -0.6558    0.0000 C.3     1  UNL1       -0.0215
     19 C           7.4260    1.7676    0.0000 C.ar    1  UNL1        0.1456
     20 C           8.3321    1.2537    0.0000 C.ar    1  UNL1        0.1086
     21 C           4.8000   -1.7671    0.0000 C.2     1  UNL1       -0.0807
     22 C           8.3321    0.2121    0.0000 C.ar    1  UNL1        0.3486
     23 C           9.1962    1.7571    0.0000 C.ar    1  UNL1       -0.0072
     24 C           4.8000   -2.7671    0.0000 C.2     1  UNL1       -0.0793
     25 C           4.8000    3.2329    0.0000 C.3     1  UNL1        0.0788
     26 C          10.0641    1.2604    0.0000 C.ar    1  UNL1       -0.0502
     27 C           9.1923    2.7571    0.0000 C.ar    1  UNL1       -0.0502
     28 C           3.9340   -3.2671    0.0000 C.3     1  UNL1       -0.0440
     29 C           5.6660   -3.2671    0.0000 C.3     1  UNL1       -0.0440
     30 C          10.9282    1.7638    0.0000 C.ar    1  UNL1       -0.0196
     31 C          10.0564    3.2604    0.0000 C.ar    1  UNL1       -0.0196
     32 C          10.9243    2.7637    0.0000 C.ar    1  UNL1        0.1169
     33 H           2.4643    1.5658    0.0000 H       1  UNL1        0.0611
     34 H           3.9132    2.3875    0.0000 H       1  UNL1        0.0624
     35 H           5.8781   -1.8497    0.0000 H       1  UNL1        0.0358
     36 H           6.2766   -1.1594    0.0000 H       1  UNL1        0.0358
     37 H           1.9976    0.8282    0.0000 H       1  UNL1        0.0271
     38 H           1.3800    0.2059    0.0000 H       1  UNL1        0.0271
     39 H           2.0024   -0.4117    0.0000 H       1  UNL1        0.0271
     40 H           1.9652   -0.3479    0.0000 H       1  UNL1        0.0271
     41 H           2.1954   -1.1940    0.0000 H       1  UNL1        0.0271
     42 H           3.0415   -0.9638    0.0000 H       1  UNL1        0.0271
     43 H           4.2631   -1.4571    0.0000 H       1  UNL1        0.0575
     44 H           7.9478    3.0837    0.0000 H       1  UNL1        0.2922
     45 H           5.1100    3.7699    0.0000 H       1  UNL1        0.0660
     46 H           4.2631    3.5429    0.0000 H       1  UNL1        0.0660
     47 H           4.4900    2.6960    0.0000 H       1  UNL1        0.0660
     48 H          10.0665    0.6404    0.0000 H       1  UNL1        0.0625
     49 H           8.6542    3.0650    0.0000 H       1  UNL1        0.0625
     50 H           3.6240   -2.7301    0.0000 H       1  UNL1        0.0274
     51 H           5.3560   -3.8040    0.0000 H       1  UNL1        0.0274
     52 H           6.2030   -3.5771    0.0000 H       1  UNL1        0.0274
     53 H           5.9760   -2.7301    0.0000 H       1  UNL1        0.0274
     54 H           3.3970   -3.5771    0.0000 H       1  UNL1        0.0274
     55 H           4.2440   -3.8040    0.0000 H       1  UNL1        0.0274
     56 H          11.4663    1.4558    0.0000 H       1  UNL1        0.0654
     57 H          10.0540    3.8804    0.0000 H       1  UNL1        0.0654
     58 H          12.3266    2.9592    0.0000 H       1  UNL1        0.2921
@<TRIPOS>BOND
     1     1     7    1
     2     1     8    1
     3     2    11   ar
     4     2    22   ar
     5     3    13    1
     6     3    25    1
     7     4    19    1
     8     4    44    1
     9     5    22    2
    10     6    32    1
    11     6    58    1
    12     7    14    1
    13     7    17    1
    14     7    18    1
    15     8     9   ar
    16     8    10   ar
    17     9    13   ar
    18     9    15    1
    19    10    11   ar
    20    10    16    1
    21    11    12   ar
    22    12    13   ar
    23    12    19   ar
    24    14    15    2
    25    14    33    1
    26    15    34    1
    27    16    21    1
    28    16    35    1
    29    16    36    1
    30    17    37    1
    31    17    38    1
    32    17    39    1
    33    18    40    1
    34    18    41    1
    35    18    42    1
    36    19    20   ar
    37    20    22   ar
    38    20    23    1
    39    21    24    2
    40    21    43    1
    41    23    26   ar
    42    23    27   ar
    43    24    28    1
    44    24    29    1
    45    25    45    1
    46    25    46    1
    47    25    47    1
    48    26    30   ar
    49    26    48    1
    50    27    31   ar
    51    27    49    1
    52    28    50    1
    53    28    54    1
    54    28    55    1
    55    29    51    1
    56    29    52    1
    57    29    53    1
    58    30    32   ar
    59    30    56    1
    60    31    32   ar
    61    31    57    1
