@<TRIPOS>MOLECULE
IMPHY003546
 26 26 0 0 0
SMALL
GASTEIGER

@<TRIPOS>ATOM
      1 O           2.8660    1.2500    0.0000 O.3     1  UNL1       -0.4784
      2 N           4.5981   -0.7500    0.0000 N.ar    1  UNL1       -0.2531
      3 N           4.5981    1.2500    0.0000 N.ar    1  UNL1       -0.2183
      4 C           2.8660   -1.7500    0.0000 C.3     1  UNL1       -0.0411
      5 C           2.8660   -0.7500    0.0000 C.3     1  UNL1       -0.0029
      6 C           2.0000   -2.2500    0.0000 C.3     1  UNL1       -0.0623
      7 C           3.7320   -2.2500    0.0000 C.3     1  UNL1       -0.0623
      8 C           3.7320   -0.2500    0.0000 C.ar    1  UNL1        0.1028
      9 C           3.7320    0.7500    0.0000 C.ar    1  UNL1        0.2365
     10 C           5.4641   -0.2500    0.0000 C.ar    1  UNL1        0.0462
     11 C           5.4641    0.7500    0.0000 C.ar    1  UNL1        0.0495
     12 C           2.8660    2.2500    0.0000 C.3     1  UNL1        0.0805
     13 H           2.8660   -2.3700    0.0000 H       1  UNL1        0.0299
     14 H           2.6540   -0.1674    0.0000 H       1  UNL1        0.0332
     15 H           2.2554   -0.8577    0.0000 H       1  UNL1        0.0332
     16 H           1.6900   -1.7131    0.0000 H       1  UNL1        0.0232
     17 H           1.4631   -2.5600    0.0000 H       1  UNL1        0.0232
     18 H           3.4220   -2.7869    0.0000 H       1  UNL1        0.0232
     19 H           4.2690   -2.5600    0.0000 H       1  UNL1        0.0232
     20 H           4.0420   -1.7131    0.0000 H       1  UNL1        0.0232
     21 H           2.3100   -2.7869    0.0000 H       1  UNL1        0.0232
     22 H           6.0010   -0.5600    0.0000 H       1  UNL1        0.0845
     23 H           6.0010    1.0600    0.0000 H       1  UNL1        0.0846
     24 H           3.4860    2.2500    0.0000 H       1  UNL1        0.0660
     25 H           2.8660    2.8700    0.0000 H       1  UNL1        0.0660
     26 H           2.2460    2.2500    0.0000 H       1  UNL1        0.0660
@<TRIPOS>BOND
     1     1     9    1
     2     1    12    1
     3     2     8   ar
     4     2    10   ar
     5     3     9   ar
     6     3    11   ar
     7     4     5    1
     8     4     6    1
     9     4     7    1
    10     4    13    1
    11     5     8    1
    12     5    14    1
    13     5    15    1
    14     6    16    1
    15     6    17    1
    16     6    21    1
    17     7    18    1
    18     7    19    1
    19     7    20    1
    20     8     9   ar
    21    10    11   ar
    22    10    22    1
    23    11    23    1
    24    12    24    1
    25    12    25    1
    26    12    26    1
