@<TRIPOS>MOLECULE
IMPHY017821
 40 40 0 0 0
SMALL
GASTEIGER

@<TRIPOS>ATOM
      1 O           2.5369    0.5950    0.0000 O.3     1  UNL1       -0.3914
      2 O           4.2690    2.5950    0.0000 O.3     1  UNL1       -0.3888
      3 C           4.2690    0.5950    0.0000 C.3     1  UNL1        0.0139
      4 C           5.1350   -0.9050    0.0000 C.3     1  UNL1       -0.0137
      5 C           5.1350    0.0950    0.0000 C.3     1  UNL1       -0.0382
      6 C           3.4030    0.0950    0.0000 C.3     1  UNL1        0.0612
      7 C           4.2690   -1.4050    0.0000 C.3     1  UNL1       -0.0143
      8 C           3.4030   -0.9050    0.0000 C.3     1  UNL1       -0.0197
      9 C           4.2690    1.5950    0.0000 C.3     1  UNL1        0.0657
     10 C           6.0010   -1.4050    0.0000 C.2     1  UNL1       -0.0760
     11 C           5.2690    1.5950    0.0000 C.3     1  UNL1       -0.0360
     12 C           3.2690    1.5950    0.0000 C.3     1  UNL1       -0.0360
     13 C           4.2690   -2.4050    0.0000 C.2     1  UNL1       -0.0874
     14 C           6.8671   -0.9050    0.0000 C.3     1  UNL1       -0.0438
     15 C           6.0010   -2.4050    0.0000 C.2     1  UNL1       -0.0994
     16 C           3.4030   -2.9050    0.0000 C.2     1  UNL1       -0.1023
     17 H           4.8059    0.9050    0.0000 H       1  UNL1        0.0353
     18 H           5.1350   -1.5250    0.0000 H       1  UNL1        0.0351
     19 H           5.7456   -0.0127    0.0000 H       1  UNL1        0.0276
     20 H           5.3471    0.6776    0.0000 H       1  UNL1        0.0276
     21 H           3.4030    0.7150    0.0000 H       1  UNL1        0.0597
     22 H           3.7320   -1.7150    0.0000 H       1  UNL1        0.0349
     23 H           2.7924   -0.7973    0.0000 H       1  UNL1        0.0296
     24 H           3.1909   -1.4876    0.0000 H       1  UNL1        0.0296
     25 H           5.2690    0.9750    0.0000 H       1  UNL1        0.0257
     26 H           5.8890    1.5950    0.0000 H       1  UNL1        0.0257
     27 H           5.2690    2.2150    0.0000 H       1  UNL1        0.0257
     28 H           3.2690    2.2150    0.0000 H       1  UNL1        0.0257
     29 H           2.6490    1.5950    0.0000 H       1  UNL1        0.0257
     30 H           3.2690    0.9750    0.0000 H       1  UNL1        0.0257
     31 H           4.8059   -2.7150    0.0000 H       1  UNL1        0.0569
     32 H           2.0000    0.2850    0.0000 H       1  UNL1        0.2098
     33 H           4.8059    2.9050    0.0000 H       1  UNL1        0.2101
     34 H           7.1771   -1.4419    0.0000 H       1  UNL1        0.0274
     35 H           7.4040   -0.5950    0.0000 H       1  UNL1        0.0274
     36 H           6.5571   -0.3681    0.0000 H       1  UNL1        0.0274
     37 H           5.4641   -2.7150    0.0000 H       1  UNL1        0.0534
     38 H           6.5380   -2.7150    0.0000 H       1  UNL1        0.0534
     39 H           2.8660   -2.5950    0.0000 H       1  UNL1        0.0532
     40 H           3.4030   -3.5250    0.0000 H       1  UNL1        0.0532
@<TRIPOS>BOND
     1     6     1    1
     2     1    32    1
     3     2     9    1
     4     2    33    1
     5     3     5    1
     6     3     6    1
     7     3     9    1
     8     3    17    1
     9     4     5    1
    10     4     7    1
    11     4    10    1
    12     4    18    1
    13     5    19    1
    14     5    20    1
    15     6     8    1
    16     6    21    1
    17     7     8    1
    18     7    13    1
    19     7    22    1
    20     8    23    1
    21     8    24    1
    22     9    11    1
    23     9    12    1
    24    10    14    1
    25    10    15    2
    26    11    25    1
    27    11    26    1
    28    11    27    1
    29    12    28    1
    30    12    29    1
    31    12    30    1
    32    13    16    2
    33    13    31    1
    34    14    34    1
    35    14    35    1
    36    14    36    1
    37    15    37    1
    38    15    38    1
    39    16    39    1
    40    16    40    1
