@<TRIPOS>MOLECULE
IMPHY011194
 59 63 0 0 0
SMALL
GASTEIGER

@<TRIPOS>ATOM
      1 O           9.9086    3.4855    0.0000 O.3     1  UNL1       -0.4859
      2 O           5.4407    2.9220    0.0000 O.3     1  UNL1       -0.5060
      3 O           3.6590   -0.1368    0.0000 O.3     1  UNL1       -0.4947
      4 O           2.0000   -3.1872    0.0000 O.3     1  UNL1       -0.5068
      5 C          10.8483    2.9430    0.0000 C.3     1  UNL1        0.1054
      6 C           8.9652    1.8942    0.0000 C.ar    1  UNL1       -0.0018
      7 C           8.0552    1.3874    0.0000 C.ar    1  UNL1       -0.0326
      8 C          10.8399    1.8581    0.0000 C.3     1  UNL1       -0.0093
      9 C           9.8920    1.3301    0.0000 C.3     1  UNL1       -0.0204
     10 C           8.0552    0.3874    0.0000 C.3     1  UNL1       -0.0227
     11 C           7.1892    1.8874    0.0000 C.ar    1  UNL1       -0.0105
     12 C           7.1892   -0.1126    0.0000 C.3     1  UNL1       -0.0226
     13 C           8.9732    2.9358    0.0000 C.ar    1  UNL1        0.1247
     14 C           6.3231    0.3874    0.0000 C.ar    1  UNL1       -0.0289
     15 C           6.3231    1.3874    0.0000 C.ar    1  UNL1        0.0275
     16 C          11.8483    2.9392    0.0000 C.3     1  UNL1       -0.0252
     17 C          11.3516    3.8071    0.0000 C.3     1  UNL1       -0.0252
     18 C           7.1731    2.9289    0.0000 C.ar    1  UNL1       -0.0502
     19 C           5.4292   -0.1473    0.0000 C.ar    1  UNL1        0.0025
     20 C           8.0711    3.4566    0.0000 C.ar    1  UNL1       -0.0190
     21 C           5.4292    1.9220    0.0000 C.ar    1  UNL1        0.1283
     22 C           4.5231    0.3665    0.0000 C.ar    1  UNL1        0.1273
     23 C           5.4407   -1.1472    0.0000 C.3     1  UNL1        0.0013
     24 C           4.5231    1.4082    0.0000 C.ar    1  UNL1        0.0224
     25 C           4.5806   -1.6572    0.0000 C.ar    1  UNL1       -0.0427
     26 C           3.7088   -1.1673    0.0000 C.ar    1  UNL1       -0.0548
     27 C           4.5921   -2.6572    0.0000 C.ar    1  UNL1       -0.0548
     28 C           2.7911    0.3599    0.0000 C.3     1  UNL1        0.0788
     29 C           2.8486   -1.6772    0.0000 C.ar    1  UNL1       -0.0199
     30 C           3.7319   -3.1671    0.0000 C.ar    1  UNL1       -0.0199
     31 C           2.8602   -2.6772    0.0000 C.ar    1  UNL1        0.1169
     32 H          11.0444    1.2728    0.0000 H       1  UNL1        0.0307
     33 H          11.4516    1.9594    0.0000 H       1  UNL1        0.0307
     34 H           9.4838    0.8635    0.0000 H       1  UNL1        0.0316
     35 H          10.2819    0.8481    0.0000 H       1  UNL1        0.0316
     36 H           8.2672   -0.1953    0.0000 H       1  UNL1        0.0317
     37 H           8.6657    0.4950    0.0000 H       1  UNL1        0.0317
     38 H           6.7906   -0.5876    0.0000 H       1  UNL1        0.0317
     39 H           7.5877   -0.5876    0.0000 H       1  UNL1        0.0317
     40 H          11.8459    2.3192    0.0000 H       1  UNL1        0.0268
     41 H          12.4682    2.9368    0.0000 H       1  UNL1        0.0268
     42 H          11.8506    3.5592    0.0000 H       1  UNL1        0.0268
     43 H          11.8873    3.4950    0.0000 H       1  UNL1        0.0268
     44 H          11.6637    4.3429    0.0000 H       1  UNL1        0.0268
     45 H          10.8159    4.1192    0.0000 H       1  UNL1        0.0268
     46 H           6.6326    3.2326    0.0000 H       1  UNL1        0.0625
     47 H           8.0687    4.0766    0.0000 H       1  UNL1        0.0654
     48 H           5.6595   -1.7274    0.0000 H       1  UNL1        0.0363
     49 H           6.0500   -1.0325    0.0000 H       1  UNL1        0.0363
     50 H           3.9874    1.7202    0.0000 H       1  UNL1        0.0691
     51 H           4.9074    3.2381    0.0000 H       1  UNL1        0.2922
     52 H           3.7016   -0.5473    0.0000 H       1  UNL1        0.0622
     53 H           5.1326   -2.9609    0.0000 H       1  UNL1        0.0622
     54 H           3.0990    0.8980    0.0000 H       1  UNL1        0.0660
     55 H           2.2529    0.6678    0.0000 H       1  UNL1        0.0660
     56 H           2.4832   -0.1783    0.0000 H       1  UNL1        0.0660
     57 H           2.3081   -1.3735    0.0000 H       1  UNL1        0.0654
     58 H           3.7391   -3.7871    0.0000 H       1  UNL1        0.0654
     59 H           2.0072   -3.8071    0.0000 H       1  UNL1        0.2921
@<TRIPOS>BOND
     1     1     5    1
     2     1    13    1
     3     2    21    1
     4     2    51    1
     5     3    22    1
     6     3    28    1
     7     4    31    1
     8     4    59    1
     9     5     8    1
    10     5    16    1
    11     5    17    1
    12     6     7   ar
    13     6     9    1
    14     6    13   ar
    15     7    10    1
    16     7    11   ar
    17     8     9    1
    18     8    32    1
    19     8    33    1
    20     9    34    1
    21     9    35    1
    22    10    12    1
    23    10    36    1
    24    10    37    1
    25    11    15    1
    26    11    18   ar
    27    12    14    1
    28    12    38    1
    29    12    39    1
    30    13    20   ar
    31    14    15   ar
    32    14    19   ar
    33    15    21   ar
    34    16    40    1
    35    16    41    1
    36    16    42    1
    37    17    43    1
    38    17    44    1
    39    17    45    1
    40    18    20   ar
    41    18    46    1
    42    19    22   ar
    43    19    23    1
    44    20    47    1
    45    21    24   ar
    46    22    24   ar
    47    23    25    1
    48    23    48    1
    49    23    49    1
    50    24    50    1
    51    25    26   ar
    52    25    27   ar
    53    26    29   ar
    54    26    52    1
    55    27    30   ar
    56    27    53    1
    57    28    54    1
    58    28    55    1
    59    28    56    1
    60    29    31   ar
    61    29    57    1
    62    30    31   ar
    63    30    58    1
