@<TRIPOS>MOLECULE
IMPHY002946
 64 68 0 0 0
SMALL
GASTEIGER

@<TRIPOS>ATOM
      1 O          15.7704    0.7972    0.0000 O.3     1  UNL1       -0.3592
      2 O          15.1154    3.4789    0.0000 O.3     1  UNL1       -0.3885
      3 O          12.0292    1.2335    0.0000 O.2     1  UNL1       -0.4709
      4 O          12.9292   -0.2908    0.0000 O.3     1  UNL1       -0.3095
      5 O          14.5758   -0.8068    0.0000 O.3     1  UNL1       -0.3921
      6 O          11.1972   -0.2908    0.0000 O.3     1  UNL1       -0.3393
      7 O          12.9292   -2.2908    0.0000 O.3     1  UNL1       -0.3841
      8 O          11.1972   -3.2908    0.0000 O.3     1  UNL1       -0.3864
      9 O           9.4651   -2.2908    0.0000 O.3     1  UNL1       -0.3864
     10 O           8.5991   -0.7908    0.0000 O.3     1  UNL1       -0.4589
     11 O           7.7331    0.7092    0.0000 O.2     1  UNL1       -0.2456
     12 O           2.5369   -2.2908    0.0000 O.3     1  UNL1       -0.5068
     13 C          14.7767    0.9135    0.0000 C.3     1  UNL1        0.1304
     14 C          15.3738    1.7157    0.0000 C.3     1  UNL1        0.1174
     15 C          13.8293    1.2335    0.0000 C.3     1  UNL1        0.0641
     16 C          13.8409    2.2335    0.0000 C.3     1  UNL1        0.0201
     17 C          14.7954    2.5315    0.0000 C.3     1  UNL1        0.0910
     18 C          14.1796    0.1114    0.0000 C.3     1  UNL1        0.0763
     19 C          12.9292    0.7092    0.0000 C.3     1  UNL1        0.2096
     20 C          12.9532    2.7784    0.0000 C.2     1  UNL1       -0.0434
     21 C          12.0412    2.2751    0.0000 C.2     1  UNL1        0.0843
     22 C          12.0632   -0.7908    0.0000 C.3     1  UNL1        0.1919
     23 C          12.0632   -1.7908    0.0000 C.3     1  UNL1        0.1343
     24 C          11.1972   -2.2908    0.0000 C.3     1  UNL1        0.1141
     25 C          10.3312   -0.7908    0.0000 C.3     1  UNL1        0.1240
     26 C          10.3312   -1.7908    0.0000 C.3     1  UNL1        0.1129
     27 C           9.4651   -0.2908    0.0000 C.3     1  UNL1        0.1215
     28 C           7.7331   -0.2908    0.0000 C.2     1  UNL1        0.3320
     29 C           6.8671   -0.7908    0.0000 C.2     1  UNL1        0.0231
     30 C           6.0010   -0.2908    0.0000 C.2     1  UNL1       -0.0478
     31 C           5.1350   -0.7908    0.0000 C.ar    1  UNL1       -0.0246
     32 C           4.2690   -0.2908    0.0000 C.ar    1  UNL1       -0.0511
     33 C           5.1350   -1.7908    0.0000 C.ar    1  UNL1       -0.0511
     34 C           3.4030   -0.7908    0.0000 C.ar    1  UNL1       -0.0196
     35 C           4.2690   -2.2908    0.0000 C.ar    1  UNL1       -0.0196
     36 C           3.4030   -1.7908    0.0000 C.ar    1  UNL1        0.1169
     37 H          16.1148    2.1322    0.0000 H       1  UNL1        0.0652
     38 H          13.9149    0.3878    0.0000 H       1  UNL1        0.0398
     39 H          13.9460    3.0769    0.0000 H       1  UNL1        0.0375
     40 H          15.4089    2.6214    0.0000 H       1  UNL1        0.0626
     41 H          13.7541    0.5623    0.0000 H       1  UNL1        0.0587
     42 H          13.6616   -0.2294    0.0000 H       1  UNL1        0.0587
     43 H          12.3917    0.4003    0.0000 H       1  UNL1        0.1060
     44 H          12.9675    3.3983    0.0000 H       1  UNL1        0.0606
     45 H          15.7233    3.6008    0.0000 H       1  UNL1        0.2099
     46 H          11.5091    2.5933    0.0000 H       1  UNL1        0.1021
     47 H          15.1916   -0.8788    0.0000 H       1  UNL1        0.2095
     48 H          12.0632   -0.1708    0.0000 H       1  UNL1        0.0939
     49 H          12.0632   -2.4108    0.0000 H       1  UNL1        0.0671
     50 H          10.6603   -2.6008    0.0000 H       1  UNL1        0.0648
     51 H          10.3312   -0.1708    0.0000 H       1  UNL1        0.0658
     52 H           9.7942   -1.4808    0.0000 H       1  UNL1        0.0647
     53 H           9.8637    0.1842    0.0000 H       1  UNL1        0.0725
     54 H           9.0666    0.1842    0.0000 H       1  UNL1        0.0725
     55 H          12.9292   -2.9108    0.0000 H       1  UNL1        0.2101
     56 H          10.6603   -3.6008    0.0000 H       1  UNL1        0.2100
     57 H           9.4651   -2.9108    0.0000 H       1  UNL1        0.2100
     58 H           6.8671   -1.4108    0.0000 H       1  UNL1        0.0689
     59 H           6.0010    0.3292    0.0000 H       1  UNL1        0.0626
     60 H           4.2690    0.3292    0.0000 H       1  UNL1        0.0625
     61 H           5.6720   -2.1008    0.0000 H       1  UNL1        0.0625
     62 H           2.8660   -0.4808    0.0000 H       1  UNL1        0.0654
     63 H           4.2690   -2.9108    0.0000 H       1  UNL1        0.0654
     64 H           2.0000   -1.9808    0.0000 H       1  UNL1        0.2921
@<TRIPOS>BOND
     1     1    13    1
     2     1    14    1
     3    17     2    1
     4     2    45    1
     5     3    19    1
     6     3    21    1
     7    19     4    1
     8    22     4    1
     9     5    18    1
    10     5    47    1
    11     6    22    1
    12     6    25    1
    13    23     7    1
    14     7    55    1
    15    24     8    1
    16     8    56    1
    17    26     9    1
    18     9    57    1
    19    10    27    1
    20    10    28    1
    21    11    28    2
    22    12    36    1
    23    12    64    1
    24    13    14    1
    25    13    15    1
    26    13    18    1
    27    14    17    1
    28    14    37    1
    29    15    16    1
    30    15    19    1
    31    15    38    1
    32    16    17    1
    33    16    20    1
    34    16    39    1
    35    17    40    1
    36    18    41    1
    37    18    42    1
    38    19    43    1
    39    20    21    2
    40    20    44    1
    41    21    46    1
    42    22    23    1
    43    22    48    1
    44    23    24    1
    45    23    49    1
    46    24    26    1
    47    24    50    1
    48    25    26    1
    49    25    27    1
    50    25    51    1
    51    26    52    1
    52    27    53    1
    53    27    54    1
    54    28    29    1
    55    29    30    2
    56    29    58    1
    57    30    31    1
    58    30    59    1
    59    31    32   ar
    60    31    33   ar
    61    32    34   ar
    62    32    60    1
    63    33    35   ar
    64    33    61    1
    65    34    36   ar
    66    34    62    1
    67    35    36   ar
    68    35    63    1
