@<TRIPOS>MOLECULE
IMPHY001376
 54 53 0 0 0
SMALL
GASTEIGER

@<TRIPOS>ATOM
      1 N          10.3312   -0.2500    0.0000 N.3     1  UNL1       -0.3159
      2 N           6.8671   -0.2500    0.0000 N.3     1  UNL1       -0.3159
      3 N          14.6613    0.2500    0.0000 N.3     1  UNL1       -0.3159
      4 N           2.5369    0.2500    0.0000 N.3     1  UNL1       -0.3300
      5 N          18.1254    0.2500    0.0000 N.3     1  UNL1       -0.3299
      6 C          12.0632   -0.2500    0.0000 C.3     1  UNL1       -0.0393
      7 C          12.9292    0.2500    0.0000 C.3     1  UNL1       -0.0393
      8 C          11.1972    0.2500    0.0000 C.3     1  UNL1       -0.0041
      9 C           8.5991   -0.2500    0.0000 C.3     1  UNL1       -0.0278
     10 C           9.4651    0.2500    0.0000 C.3     1  UNL1       -0.0030
     11 C          13.7953   -0.2500    0.0000 C.3     1  UNL1       -0.0041
     12 C           7.7331    0.2500    0.0000 C.3     1  UNL1       -0.0030
     13 C           6.0010    0.2500    0.0000 C.3     1  UNL1       -0.0041
     14 C           5.1350   -0.2500    0.0000 C.3     1  UNL1       -0.0393
     15 C          15.5273   -0.2500    0.0000 C.3     1  UNL1       -0.0030
     16 C           4.2690    0.2500    0.0000 C.3     1  UNL1       -0.0395
     17 C          16.3933    0.2500    0.0000 C.3     1  UNL1       -0.0281
     18 C           3.4030   -0.2500    0.0000 C.3     1  UNL1       -0.0069
     19 C          17.2594   -0.2500    0.0000 C.3     1  UNL1       -0.0058
     20 H          11.6647   -0.7249    0.0000 H       1  UNL1        0.0278
     21 H          12.4617   -0.7249    0.0000 H       1  UNL1        0.0278
     22 H          13.3278    0.7249    0.0000 H       1  UNL1        0.0278
     23 H          12.5307    0.7249    0.0000 H       1  UNL1        0.0278
     24 H          11.5957    0.7249    0.0000 H       1  UNL1        0.0424
     25 H          10.7987    0.7249    0.0000 H       1  UNL1        0.0424
     26 H           8.2006   -0.7249    0.0000 H       1  UNL1        0.0290
     27 H           8.9976   -0.7249    0.0000 H       1  UNL1        0.0290
     28 H           9.8637    0.7249    0.0000 H       1  UNL1        0.0424
     29 H           9.0666    0.7249    0.0000 H       1  UNL1        0.0424
     30 H          13.3967   -0.7249    0.0000 H       1  UNL1        0.0424
     31 H          14.1938   -0.7249    0.0000 H       1  UNL1        0.0424
     32 H           8.1316    0.7249    0.0000 H       1  UNL1        0.0424
     33 H           7.3346    0.7249    0.0000 H       1  UNL1        0.0424
     34 H          10.3312   -0.8700    0.0000 H       1  UNL1        0.1219
     35 H           6.3996    0.7249    0.0000 H       1  UNL1        0.0424
     36 H           5.6025    0.7249    0.0000 H       1  UNL1        0.0424
     37 H           4.7365   -0.7249    0.0000 H       1  UNL1        0.0278
     38 H           5.5335   -0.7249    0.0000 H       1  UNL1        0.0278
     39 H           6.8671   -0.8700    0.0000 H       1  UNL1        0.1219
     40 H          14.6613    0.8700    0.0000 H       1  UNL1        0.1219
     41 H          15.1288   -0.7249    0.0000 H       1  UNL1        0.0424
     42 H          15.9258   -0.7249    0.0000 H       1  UNL1        0.0424
     43 H           4.6675    0.7249    0.0000 H       1  UNL1        0.0278
     44 H           3.8705    0.7249    0.0000 H       1  UNL1        0.0278
     45 H          16.7919    0.7249    0.0000 H       1  UNL1        0.0290
     46 H          15.9948    0.7249    0.0000 H       1  UNL1        0.0290
     47 H           3.0044   -0.7249    0.0000 H       1  UNL1        0.0422
     48 H           3.8015   -0.7249    0.0000 H       1  UNL1        0.0422
     49 H          16.8608   -0.7249    0.0000 H       1  UNL1        0.0422
     50 H          17.6579   -0.7249    0.0000 H       1  UNL1        0.0422
     51 H           2.0000   -0.0600    0.0000 H       1  UNL1        0.1182
     52 H           2.5369    0.8700    0.0000 H       1  UNL1        0.1182
     53 H          18.6623   -0.0600    0.0000 H       1  UNL1        0.1182
     54 H          18.1254    0.8700    0.0000 H       1  UNL1        0.1182
@<TRIPOS>BOND
     1     1     8    1
     2     1    10    1
     3     1    34    1
     4     2    12    1
     5     2    13    1
     6     2    39    1
     7     3    11    1
     8     3    15    1
     9     3    40    1
    10     4    18    1
    11     4    51    1
    12     4    52    1
    13     5    19    1
    14     5    53    1
    15     5    54    1
    16     6     7    1
    17     6     8    1
    18     6    20    1
    19     6    21    1
    20     7    11    1
    21     7    22    1
    22     7    23    1
    23     8    24    1
    24     8    25    1
    25     9    10    1
    26     9    12    1
    27     9    26    1
    28     9    27    1
    29    10    28    1
    30    10    29    1
    31    11    30    1
    32    11    31    1
    33    12    32    1
    34    12    33    1
    35    13    14    1
    36    13    35    1
    37    13    36    1
    38    14    16    1
    39    14    37    1
    40    14    38    1
    41    15    17    1
    42    15    41    1
    43    15    42    1
    44    16    18    1
    45    16    43    1
    46    16    44    1
    47    17    19    1
    48    17    45    1
    49    17    46    1
    50    18    47    1
    51    18    48    1
    52    19    49    1
    53    19    50    1
