@<TRIPOS>MOLECULE
IMPHY014058
 31 32 0 0 0
SMALL
GASTEIGER

@<TRIPOS>ATOM
      1 O           6.5888    2.6283    0.0000 O.co2   1  UNL1       -0.7759
      2 N           6.2781    1.6778    0.0000 N.3     1  UNL1        0.2130
      3 N           4.6783   -2.0390    0.0000 N.ar    1  UNL1       -0.3604
      4 C           5.9674    0.7272    0.0000 C.3     1  UNL1       -0.0291
      5 C           4.9889    0.5210    0.0000 C.3     1  UNL1        0.0146
      6 C           4.6783   -0.4295    0.0000 C.ar    1  UNL1       -0.0173
      7 C           3.7320   -0.7342    0.0000 C.ar    1  UNL1        0.0030
      8 C           7.2286    1.3671    0.0000 C.3     1  UNL1       -0.0441
      9 C           5.3276    1.9884    0.0000 C.3     1  UNL1       -0.0441
     10 C           3.7320   -1.7342    0.0000 C.ar    1  UNL1        0.0467
     11 C           5.2619   -1.2342    0.0000 C.ar    1  UNL1        0.0061
     12 C           2.8660   -0.2342    0.0000 C.ar    1  UNL1       -0.0523
     13 C           2.8660   -2.2342    0.0000 C.ar    1  UNL1       -0.0378
     14 C           2.0000   -0.7342    0.0000 C.ar    1  UNL1       -0.0611
     15 C           2.0000   -1.7342    0.0000 C.ar    1  UNL1       -0.0598
     16 H           5.9880    0.1076    0.0000 H       1  UNL1        0.0816
     17 H           6.5812    0.6399    0.0000 H       1  UNL1        0.0816
     18 H           4.9684    1.1407    0.0000 H       1  UNL1        0.0366
     19 H           4.3751    0.6084    0.0000 H       1  UNL1        0.0366
     20 H           7.0360    0.7778    0.0000 H       1  UNL1        0.0776
     21 H           7.8179    1.1745    0.0000 H       1  UNL1        0.0776
     22 H           7.4212    1.9564    0.0000 H       1  UNL1        0.0776
     23 H           5.5202    2.5778    0.0000 H       1  UNL1        0.0776
     24 H           4.7383    2.1810    0.0000 H       1  UNL1        0.0776
     25 H           5.1350    1.3991    0.0000 H       1  UNL1        0.0776
     26 H           5.8819   -1.2342    0.0000 H       1  UNL1        0.0810
     27 H           4.8709   -2.6283    0.0000 H       1  UNL1        0.1653
     28 H           2.8660    0.3858    0.0000 H       1  UNL1        0.0624
     29 H           2.8660   -2.8542    0.0000 H       1  UNL1        0.0638
     30 H           1.4631   -0.4242    0.0000 H       1  UNL1        0.0618
     31 H           1.4631   -2.0442    0.0000 H       1  UNL1        0.0618
@<TRIPOS>UNITY_ATOM_ATTR
1 1
charge -1
2 1
charge 1
@<TRIPOS>BOND
     1     1     2    1
     2     2     4    1
     3     2     8    1
     4     2     9    1
     5     3    10   ar
     6     3    11   ar
     7     3    27    1
     8     4     5    1
     9     4    16    1
    10     4    17    1
    11     5     6    1
    12     5    18    1
    13     5    19    1
    14     6     7   ar
    15     6    11   ar
    16     7    10   ar
    17     7    12   ar
    18     8    20    1
    19     8    21    1
    20     8    22    1
    21     9    23    1
    22     9    24    1
    23     9    25    1
    24    10    13   ar
    25    11    26    1
    26    12    14   ar
    27    12    28    1
    28    13    15   ar
    29    13    29    1
    30    14    15   ar
    31    14    30    1
    32    15    31    1
