@<TRIPOS>MOLECULE
IMPHY013681
 143 150 0 0 0
SMALL
GASTEIGER

@<TRIPOS>ATOM
      1 O           6.8671   -3.1527    0.0000 O.3     1  UNL1       -0.3445
      2 O           8.6209    6.1267    0.0000 O.3     1  UNL1       -0.4318
      3 O           9.3112   -2.4610    0.0000 O.2     1  UNL1       -0.3004
      4 O           9.5042    4.6368    0.0000 O.2     1  UNL1       -0.2501
      5 O           5.1350   -3.1527    0.0000 O.3     1  UNL1       -0.3405
      6 O           6.8671   -5.1527    0.0000 O.3     1  UNL1       -0.3378
      7 O          10.3528    6.1467    0.0000 O.3     1  UNL1       -0.3312
      8 O           5.1350   -6.1527    0.0000 O.3     1  UNL1       -0.3864
      9 O           3.4030   -5.1527    0.0000 O.3     1  UNL1       -0.3865
     10 O           8.5977    8.1266    0.0000 O.3     1  UNL1       -0.3829
     11 O          10.3181    9.1465    0.0000 O.3     1  UNL1       -0.3864
     12 O           6.0010   -6.6527    0.0000 O.3     1  UNL1       -0.3405
     13 O           2.5369   -3.6527    0.0000 O.3     1  UNL1       -0.3924
     14 O          12.0616    8.1666    0.0000 O.3     1  UNL1       -0.3865
     15 O           8.5991   -6.1527    0.0000 O.3     1  UNL1       -0.3841
     16 O          12.9449    6.6768    0.0000 O.3     1  UNL1       -0.3924
     17 O           8.5991   -8.1527    0.0000 O.3     1  UNL1       -0.3864
     18 O           6.8671   -9.1527    0.0000 O.3     1  UNL1       -0.3865
     19 O           4.2690   -7.6527    0.0000 O.3     1  UNL1       -0.3924
     20 C           7.7681    1.5475    0.0000 C.3     1  UNL1       -0.0194
     21 C           6.9040    1.0442    0.0000 C.3     1  UNL1       -0.0257
     22 C           6.8920    0.0026    0.0000 C.3     1  UNL1       -0.0246
     23 C           7.7643    2.5475    0.0000 C.3     1  UNL1       -0.0051
     24 C           7.7920   -0.5217    0.0000 C.3     1  UNL1       -0.0211
     25 C           8.6801    1.0442    0.0000 C.3     1  UNL1       -0.0463
     26 C           6.8963    3.0442    0.0000 C.2     1  UNL1       -0.0629
     27 C           8.6921    0.0026    0.0000 C.3     1  UNL1       -0.0482
     28 C           6.8762    4.0856    0.0000 C.3     1  UNL1       -0.0031
     29 C           7.8046   -1.6066    0.0000 C.3     1  UNL1        0.0526
     30 C           6.0361    1.5408    0.0000 C.3     1  UNL1       -0.0306
     31 C           8.6723    3.0578    0.0000 C.3     1  UNL1       -0.0424
     32 C           5.9421   -0.5217    0.0000 C.3     1  UNL1       -0.0447
     33 C           7.7722    4.6168    0.0000 C.3     1  UNL1        0.0744
     34 C           8.7522    1.7249    0.0000 C.3     1  UNL1       -0.0585
     35 C           8.6763    4.0995    0.0000 C.3     1  UNL1       -0.0359
     36 C           6.0322    2.5408    0.0000 C.2     1  UNL1       -0.0836
     37 C           6.8671   -2.1527    0.0000 C.3     1  UNL1        0.0738
     38 C           6.0279    0.5059    0.0000 C.3     1  UNL1       -0.0590
     39 C           5.9295   -1.6066    0.0000 C.3     1  UNL1       -0.0251
     40 C           8.7497    2.3776    0.0000 C.3     1  UNL1       -0.0553
     41 C           5.9223    4.6025    0.0000 C.3     1  UNL1       -0.0403
     42 C           7.7764    5.7018    0.0000 C.3     1  UNL1       -0.0362
     43 C           5.9014    5.6873    0.0000 C.3     1  UNL1       -0.0343
     44 C           6.8347    6.2406    0.0000 C.3     1  UNL1       -0.0468
     45 C           8.3113   -2.4688    0.0000 C.3     1  UNL1       -0.0504
     46 C           8.8046   -1.5989    0.0000 C.2     1  UNL1        0.1289
     47 C           8.6324    5.1268    0.0000 C.2     1  UNL1        0.3161
     48 C           5.3881    6.5455    0.0000 C.3     1  UNL1       -0.0598
     49 C           4.9015    5.6719    0.0000 C.3     1  UNL1       -0.0598
     50 C           6.0010   -3.6527    0.0000 C.3     1  UNL1        0.1886
     51 C           6.0010   -4.6527    0.0000 C.3     1  UNL1        0.1406
     52 C           9.4810    6.6367    0.0000 C.3     1  UNL1        0.2337
     53 C           5.1350   -5.1527    0.0000 C.3     1  UNL1        0.1144
     54 C           4.2690   -3.6527    0.0000 C.3     1  UNL1        0.1130
     55 C           4.2690   -4.6527    0.0000 C.3     1  UNL1        0.1119
     56 C           9.4695    7.6366    0.0000 C.3     1  UNL1        0.1455
     57 C          10.3297    8.1466    0.0000 C.3     1  UNL1        0.1152
     58 C          11.2130    6.6567    0.0000 C.3     1  UNL1        0.1140
     59 C           3.4030   -3.1527    0.0000 C.3     1  UNL1        0.0730
     60 C          11.2014    7.6566    0.0000 C.3     1  UNL1        0.1120
     61 C           6.8671   -6.1527    0.0000 C.3     1  UNL1        0.1885
     62 C           7.7331   -6.6527    0.0000 C.3     1  UNL1        0.1341
     63 C          12.0847    6.1668    0.0000 C.3     1  UNL1        0.0731
     64 C           7.7331   -7.6527    0.0000 C.3     1  UNL1        0.1141
     65 C           6.0010   -7.6527    0.0000 C.3     1  UNL1        0.1130
     66 C           6.8671   -8.1527    0.0000 C.3     1  UNL1        0.1119
     67 C           5.1350   -8.1527    0.0000 C.3     1  UNL1        0.0730
     68 H           7.4398    0.7321    0.0000 H       1  UNL1        0.0315
     69 H           8.3314   -0.8275    0.0000 H       1  UNL1        0.0316
     70 H           9.2921    0.9451    0.0000 H       1  UNL1        0.0271
     71 H           8.8824    1.6302    0.0000 H       1  UNL1        0.0271
     72 H           8.9079   -0.5786    0.0000 H       1  UNL1        0.0269
     73 H           9.3017    0.1158    0.0000 H       1  UNL1        0.0269
     74 H           6.3466    3.7632    0.0000 H       1  UNL1        0.0357
     75 H           5.4251    1.6461    0.0000 H       1  UNL1        0.0310
     76 H           5.8263    0.9574    0.0000 H       1  UNL1        0.0310
     77 H           8.8791    2.4734    0.0000 H       1  UNL1        0.0274
     78 H           9.2836    3.1616    0.0000 H       1  UNL1        0.0274
     79 H           5.7398    0.0644    0.0000 H       1  UNL1        0.0271
     80 H           5.3300   -0.6207    0.0000 H       1  UNL1        0.0271
     81 H           8.8623    1.1148    0.0000 H       1  UNL1        0.0235
     82 H           9.3624    1.8350    0.0000 H       1  UNL1        0.0235
     83 H           8.6422    2.3351    0.0000 H       1  UNL1        0.0235
     84 H           9.2868    3.9910    0.0000 H       1  UNL1        0.0276
     85 H           8.8876    4.6823    0.0000 H       1  UNL1        0.0276
     86 H           5.4941    2.8487    0.0000 H       1  UNL1        0.0572
     87 H           7.4046   -2.4617    0.0000 H       1  UNL1        0.0606
     88 H           6.3400    1.0417    0.0000 H       1  UNL1        0.0235
     89 H           5.4922    0.8180    0.0000 H       1  UNL1        0.0235
     90 H           5.7158   -0.0298    0.0000 H       1  UNL1        0.0235
     91 H           5.3199   -1.4935    0.0000 H       1  UNL1        0.0291
     92 H           5.7137   -2.1878    0.0000 H       1  UNL1        0.0291
     93 H           8.6444    1.7666    0.0000 H       1  UNL1        0.0238
     94 H           9.3607    2.2723    0.0000 H       1  UNL1        0.0238
     95 H           8.8550    2.9886    0.0000 H       1  UNL1        0.0238
     96 H           5.3095    4.6968    0.0000 H       1  UNL1        0.0276
     97 H           5.7246    4.0149    0.0000 H       1  UNL1        0.0276
     98 H           8.3869    5.5933    0.0000 H       1  UNL1        0.0276
     99 H           7.9877    6.2847    0.0000 H       1  UNL1        0.0276
    100 H           7.2302    6.7182    0.0000 H       1  UNL1        0.0271
    101 H           6.4319    6.7120    0.0000 H       1  UNL1        0.0271
    102 H           7.7767   -2.7829    0.0000 H       1  UNL1        0.0240
    103 H           8.6254   -3.0033    0.0000 H       1  UNL1        0.0240
    104 H           8.8458   -2.1546    0.0000 H       1  UNL1        0.0240
    105 H           9.1104   -1.0596    0.0000 H       1  UNL1        0.1033
    106 H           5.9202    6.8638    0.0000 H       1  UNL1        0.0235
    107 H           5.0699    7.0776    0.0000 H       1  UNL1        0.0235
    108 H           4.8560    6.2273    0.0000 H       1  UNL1        0.0235
    109 H           4.8920    6.2918    0.0000 H       1  UNL1        0.0235
    110 H           4.2816    5.6624    0.0000 H       1  UNL1        0.0235
    111 H           4.9111    5.0520    0.0000 H       1  UNL1        0.0235
    112 H           6.0010   -3.0327    0.0000 H       1  UNL1        0.0938
    113 H           6.0010   -5.2727    0.0000 H       1  UNL1        0.0675
    114 H           9.4882    6.0167    0.0000 H       1  UNL1        0.1085
    115 H           4.5981   -5.4627    0.0000 H       1  UNL1        0.0648
    116 H           4.2690   -3.0327    0.0000 H       1  UNL1        0.0647
    117 H           4.2690   -5.2727    0.0000 H       1  UNL1        0.0647
    118 H           8.9362    7.3204    0.0000 H       1  UNL1        0.0683
    119 H           9.7892    8.4504    0.0000 H       1  UNL1        0.0648
    120 H          11.2202    6.0368    0.0000 H       1  UNL1        0.0647
    121 H           3.8015   -2.6778    0.0000 H       1  UNL1        0.0584
    122 H           3.0044   -2.6778    0.0000 H       1  UNL1        0.0584
    123 H          11.1943    8.2766    0.0000 H       1  UNL1        0.0647
    124 H           7.4040   -5.8427    0.0000 H       1  UNL1        0.0938
    125 H           4.5981   -6.4627    0.0000 H       1  UNL1        0.2100
    126 H           3.4030   -5.7727    0.0000 H       1  UNL1        0.2100
    127 H           8.5906    8.7465    0.0000 H       1  UNL1        0.2102
    128 H           8.2700   -6.9627    0.0000 H       1  UNL1        0.0671
    129 H          11.6917    5.6872    0.0000 H       1  UNL1        0.0584
    130 H          12.4887    5.6965    0.0000 H       1  UNL1        0.0584
    131 H          10.8514    9.4627    0.0000 H       1  UNL1        0.2100
    132 H           2.0000   -3.3427    0.0000 H       1  UNL1        0.2095
    133 H          12.0544    8.7866    0.0000 H       1  UNL1        0.2100
    134 H           8.2700   -7.3427    0.0000 H       1  UNL1        0.0648
    135 H           5.4641   -7.3427    0.0000 H       1  UNL1        0.0647
    136 H           7.4040   -8.4627    0.0000 H       1  UNL1        0.0647
    137 H           9.1360   -6.4627    0.0000 H       1  UNL1        0.2101
    138 H          13.4854    6.3730    0.0000 H       1  UNL1        0.2095
    139 H           4.7365   -8.6277    0.0000 H       1  UNL1        0.0584
    140 H           5.5335   -8.6277    0.0000 H       1  UNL1        0.0584
    141 H           8.5991   -8.7727    0.0000 H       1  UNL1        0.2100
    142 H           6.3301   -9.4627    0.0000 H       1  UNL1        0.2100
    143 H           3.7320   -7.9627    0.0000 H       1  UNL1        0.2095
@<TRIPOS>BOND
     1     1    37    1
     2     1    50    1
     3     2    47    1
     4     2    52    1
     5     3    46    2
     6     4    47    2
     7     5    50    1
     8     5    54    1
     9     6    51    1
    10     6    61    1
    11     7    52    1
    12     7    58    1
    13     8    53    1
    14     8   125    1
    15     9    55    1
    16     9   126    1
    17    10    56    1
    18    10   127    1
    19    11    57    1
    20    11   131    1
    21    12    61    1
    22    12    65    1
    23    13    59    1
    24    13   132    1
    25    14    60    1
    26    14   133    1
    27    15    62    1
    28    15   137    1
    29    16    63    1
    30    16   138    1
    31    17    64    1
    32    17   141    1
    33    18    66    1
    34    18   142    1
    35    19    67    1
    36    19   143    1
    37    20    21    1
    38    20    23    1
    39    20    25    1
    40    20    34    1
    41    21    22    1
    42    21    30    1
    43    21    68    1
    44    22    24    1
    45    22    32    1
    46    22    38    1
    47    23    26    1
    48    23    31    1
    49    23    40    1
    50    24    27    1
    51    24    29    1
    52    24    69    1
    53    25    27    1
    54    25    70    1
    55    25    71    1
    56    26    28    1
    57    26    36    2
    58    27    72    1
    59    27    73    1
    60    28    33    1
    61    28    41    1
    62    28    74    1
    63    29    37    1
    64    29    45    1
    65    29    46    1
    66    30    36    1
    67    30    75    1
    68    30    76    1
    69    31    35    1
    70    31    77    1
    71    31    78    1
    72    32    39    1
    73    32    79    1
    74    32    80    1
    75    33    35    1
    76    33    42    1
    77    33    47    1
    78    34    81    1
    79    34    82    1
    80    34    83    1
    81    35    84    1
    82    35    85    1
    83    36    86    1
    84    37    39    1
    85    37    87    1
    86    38    88    1
    87    38    89    1
    88    38    90    1
    89    39    91    1
    90    39    92    1
    91    40    93    1
    92    40    94    1
    93    40    95    1
    94    41    43    1
    95    41    96    1
    96    41    97    1
    97    42    44    1
    98    42    98    1
    99    42    99    1
   100    43    44    1
   101    43    48    1
   102    43    49    1
   103    44   100    1
   104    44   101    1
   105    45   102    1
   106    45   103    1
   107    45   104    1
   108    46   105    1
   109    48   106    1
   110    48   107    1
   111    48   108    1
   112    49   109    1
   113    49   110    1
   114    49   111    1
   115    50    51    1
   116    50   112    1
   117    51    53    1
   118    51   113    1
   119    52    56    1
   120    52   114    1
   121    53    55    1
   122    53   115    1
   123    54    55    1
   124    54    59    1
   125    54   116    1
   126    55   117    1
   127    56    57    1
   128    56   118    1
   129    57    60    1
   130    57   119    1
   131    58    60    1
   132    58    63    1
   133    58   120    1
   134    59   121    1
   135    59   122    1
   136    60   123    1
   137    61    62    1
   138    61   124    1
   139    62    64    1
   140    62   128    1
   141    63   129    1
   142    63   130    1
   143    64    66    1
   144    64   134    1
   145    65    66    1
   146    65    67    1
   147    65   135    1
   148    66   136    1
   149    67   139    1
   150    67   140    1
