@<TRIPOS>MOLECULE
IMPHY005735
 15 15 0 0 0
SMALL
GASTEIGER

@<TRIPOS>ATOM
      1 CL          2.0000   -0.1410    0.0000 Cl      1  UNL1       -0.0641
      2 O           5.7281   -1.1191    0.0000 O.2     1  UNL1       -0.2908
      3 N           3.7601   -0.4197    0.0000 N.ar    1  UNL1       -0.3432
      4 C           4.5691    0.1681    0.0000 C.ar    1  UNL1        0.0830
      5 C           4.2601    1.1191    0.0000 C.ar    1  UNL1       -0.0321
      6 C           5.5202   -0.1410    0.0000 C.2     1  UNL1        0.1761
      7 C           2.9511    0.1681    0.0000 C.ar    1  UNL1        0.1072
      8 C           3.2601    1.1191    0.0000 C.ar    1  UNL1       -0.0247
      9 C           6.2633    0.5282    0.0000 C.3     1  UNL1        0.0001
     10 H           3.7601   -1.0397    0.0000 H       1  UNL1        0.1668
     11 H           4.6245    1.6207    0.0000 H       1  UNL1        0.0640
     12 H           2.8956    1.6207    0.0000 H       1  UNL1        0.0648
     13 H           6.6782    0.0674    0.0000 H       1  UNL1        0.0310
     14 H           6.7240    0.9430    0.0000 H       1  UNL1        0.0310
     15 H           5.8484    0.9889    0.0000 H       1  UNL1        0.0310
@<TRIPOS>BOND
     1     1     7    1
     2     2     6    2
     3     3     4   ar
     4     3     7   ar
     5     3    10    1
     6     4     5   ar
     7     4     6    1
     8     5     8   ar
     9     5    11    1
    10     6     9    1
    11     7     8   ar
    12     8    12    1
    13     9    13    1
    14     9    14    1
    15     9    15    1
