@<TRIPOS>MOLECULE
IMPHY014183
 147 155 0 0 0
SMALL
GASTEIGER

@<TRIPOS>ATOM
      1 O           8.9271   -3.4501    0.0000 O.3     1  UNL1       -0.3877
      2 O           6.0010   -6.3512    0.0000 O.3     1  UNL1       -0.3445
      3 O           8.8447    2.0441    0.0000 O.3     1  UNL1       -0.3451
      4 O           4.2690   -6.3512    0.0000 O.3     1  UNL1       -0.3395
      5 O           7.1963    2.5758    0.0000 O.3     1  UNL1       -0.3431
      6 O           6.0010   -8.3512    0.0000 O.3     1  UNL1       -0.4500
      7 O           4.2690   -9.3512    0.0000 O.3     1  UNL1       -0.3853
      8 O           9.4587    3.9475    0.0000 O.3     1  UNL1       -0.3841
      9 O           2.5369   -8.3512    0.0000 O.3     1  UNL1       -0.3864
     10 O           8.1173    5.4310    0.0000 O.3     1  UNL1       -0.3744
     11 O           6.1619    5.0110    0.0000 O.3     1  UNL1       -0.3402
     12 O           2.5369   -5.3512    0.0000 O.3     1  UNL1       -0.3924
     13 O           5.1350   -9.8512    0.0000 O.2     1  UNL1       -0.2449
     14 O           7.4466    6.1727    0.0000 O.3     1  UNL1       -0.3394
     15 O           4.8204    6.4944    0.0000 O.3     1  UNL1       -0.3841
     16 O           5.4344    8.3979    0.0000 O.3     1  UNL1       -0.3864
     17 O           7.3898    8.8178    0.0000 O.3     1  UNL1       -0.3864
     18 O           9.0382    8.2861    0.0000 O.3     1  UNL1       -0.4585
     19 O          10.6867    7.7544    0.0000 O.2     1  UNL1       -0.2450
     20 C           6.9701   -3.8625    0.0000 C.3     1  UNL1        0.0022
     21 C           7.9486   -3.6563    0.0000 C.3     1  UNL1        0.0751
     22 C           8.2593   -2.7058    0.0000 C.3     1  UNL1       -0.0046
     23 C           7.5914   -1.9615    0.0000 C.3     1  UNL1       -0.0262
     24 C           6.8671   -4.8512    0.0000 C.3     1  UNL1       -0.0068
     25 C           6.3023   -3.1182    0.0000 C.3     1  UNL1       -0.0444
     26 C           7.8997   -0.9665    0.0000 C.3     1  UNL1       -0.0077
     27 C           8.4419   -4.5193    0.0000 C.3     1  UNL1       -0.0228
     28 C           6.6129   -2.1677    0.0000 C.3     1  UNL1       -0.0485
     29 C           7.7748   -5.2563    0.0000 C.3     1  UNL1       -0.0447
     30 C           9.2817   -2.5067    0.0000 C.3     1  UNL1       -0.0287
     31 C           5.9916   -4.0687    0.0000 C.3     1  UNL1       -0.0566
     32 C           8.9173   -0.7438    0.0000 C.2     1  UNL1       -0.0648
     33 C           6.0010   -5.3512    0.0000 C.3     1  UNL1        0.0624
     34 C           7.1566   -0.1759    0.0000 C.3     1  UNL1       -0.0413
     35 C           9.6129   -1.5191    0.0000 C.2     1  UNL1       -0.0838
     36 C           6.9228   -1.1803    0.0000 C.3     1  UNL1       -0.0556
     37 C           9.2623    0.2848    0.0000 C.3     1  UNL1       -0.0047
     38 C           7.4778    0.8605    0.0000 C.3     1  UNL1       -0.0254
     39 C           8.5377    1.0924    0.0000 C.3     1  UNL1        0.0655
     40 C           5.1350   -4.8512    0.0000 C.3     1  UNL1       -0.0383
     41 C           5.1350   -6.8512    0.0000 C.3     1  UNL1        0.1995
     42 C           8.1740    2.7858    0.0000 C.3     1  UNL1        0.1881
     43 C           5.1350   -7.8512    0.0000 C.3     1  UNL1        0.1819
     44 C           4.2690   -8.3512    0.0000 C.3     1  UNL1        0.1251
     45 C           8.4810    3.7375    0.0000 C.3     1  UNL1        0.1344
     46 C           3.4030   -6.8512    0.0000 C.3     1  UNL1        0.1131
     47 C           3.4030   -7.8512    0.0000 C.3     1  UNL1        0.1130
     48 C           7.8103    4.4793    0.0000 C.3     1  UNL1        0.1174
     49 C           6.5256    3.3176    0.0000 C.3     1  UNL1        0.0877
     50 C           6.8326    4.2693    0.0000 C.3     1  UNL1        0.1162
     51 C           2.5369   -6.3512    0.0000 C.3     1  UNL1        0.0730
     52 C           5.5479    3.1076    0.0000 C.3     1  UNL1       -0.0360
     53 C           6.0010   -9.3512    0.0000 C.2     1  UNL1        0.3397
     54 C           6.4688    5.9627    0.0000 C.3     1  UNL1        0.1885
     55 C           9.0950    5.6410    0.0000 C.3     1  UNL1        0.0370
     56 C           6.8671   -9.8512    0.0000 C.ar    1  UNL1        0.0590
     57 C           5.7981    6.7044    0.0000 C.3     1  UNL1        0.1341
     58 C           6.1051    7.6561    0.0000 C.3     1  UNL1        0.1141
     59 C           6.8671  -10.8512    0.0000 C.ar    1  UNL1       -0.0478
     60 C           7.7331   -9.3512    0.0000 C.ar    1  UNL1       -0.0478
     61 C           7.7536    7.1244    0.0000 C.3     1  UNL1        0.1240
     62 C           7.0828    7.8661    0.0000 C.3     1  UNL1        0.1129
     63 C           7.7331  -11.3512    0.0000 C.ar    1  UNL1       -0.0610
     64 C           8.5991   -9.8512    0.0000 C.ar    1  UNL1       -0.0610
     65 C           8.7313    7.3344    0.0000 C.3     1  UNL1        0.1215
     66 C           8.5991  -10.8512    0.0000 C.ar    1  UNL1       -0.0617
     67 C          10.0160    8.4961    0.0000 C.2     1  UNL1        0.3393
     68 C          10.3230    9.4478    0.0000 C.ar    1  UNL1        0.0590
     69 C          11.3007    9.6578    0.0000 C.ar    1  UNL1       -0.0478
     70 C           9.6522   10.1895    0.0000 C.ar    1  UNL1       -0.0478
     71 C          11.6077   10.6095    0.0000 C.ar    1  UNL1       -0.0610
     72 C           9.9592   11.1412    0.0000 C.ar    1  UNL1       -0.0610
     73 C          10.9369   11.3512    0.0000 C.ar    1  UNL1       -0.0617
     74 H           8.8221   -3.3428    0.0000 H       1  UNL1        0.0335
     75 H           8.4218   -1.7798    0.0000 H       1  UNL1        0.0313
     76 H           7.6032   -4.4262    0.0000 H       1  UNL1        0.0332
     77 H           5.7554   -2.8262    0.0000 H       1  UNL1        0.0272
     78 H           5.9197   -3.6061    0.0000 H       1  UNL1        0.0272
     79 H           8.8553   -4.9814    0.0000 H       1  UNL1        0.0293
     80 H           8.9449   -4.1568    0.0000 H       1  UNL1        0.0293
     81 H           6.5924   -1.5480    0.0000 H       1  UNL1        0.0268
     82 H           5.9991   -2.0803    0.0000 H       1  UNL1        0.0268
     83 H           7.4641   -5.7928    0.0000 H       1  UNL1        0.0270
     84 H           8.2757   -5.6218    0.0000 H       1  UNL1        0.0270
     85 H           9.2943   -3.1266    0.0000 H       1  UNL1        0.0311
     86 H           9.8946   -2.6004    0.0000 H       1  UNL1        0.0311
     87 H           5.8638   -3.4620    0.0000 H       1  UNL1        0.0236
     88 H           5.3849   -4.1966    0.0000 H       1  UNL1        0.0236
     89 H           6.1195   -4.6754    0.0000 H       1  UNL1        0.0236
     90 H           6.5380   -5.6612    0.0000 H       1  UNL1        0.0597
     91 H           6.6046    0.1062    0.0000 H       1  UNL1        0.0274
     92 H           6.7842   -0.6716    0.0000 H       1  UNL1        0.0274
     93 H          10.2201   -1.3936    0.0000 H       1  UNL1        0.0572
     94 H           9.3412   -3.9115    0.0000 H       1  UNL1        0.2102
     95 H           6.7903   -0.5746    0.0000 H       1  UNL1        0.0238
     96 H           6.3172   -1.3128    0.0000 H       1  UNL1        0.0238
     97 H           7.0554   -1.7859    0.0000 H       1  UNL1        0.0238
     98 H           9.8077   -0.0100    0.0000 H       1  UNL1        0.0335
     99 H           9.6461    0.7718    0.0000 H       1  UNL1        0.0335
    100 H           7.4508    1.4799    0.0000 H       1  UNL1        0.0290
    101 H           6.8629    0.9399    0.0000 H       1  UNL1        0.0290
    102 H           8.1210    1.5515    0.0000 H       1  UNL1        0.0600
    103 H           5.4450   -4.3143    0.0000 H       1  UNL1        0.0255
    104 H           4.5981   -4.5412    0.0000 H       1  UNL1        0.0255
    105 H           4.8250   -5.3882    0.0000 H       1  UNL1        0.0255
    106 H           5.1350   -6.2312    0.0000 H       1  UNL1        0.0949
    107 H           7.9836    2.1958    0.0000 H       1  UNL1        0.0937
    108 H           5.1350   -8.4712    0.0000 H       1  UNL1        0.0813
    109 H           3.7320   -8.6612    0.0000 H       1  UNL1        0.0659
    110 H           8.8968    3.2777    0.0000 H       1  UNL1        0.0671
    111 H           3.4030   -6.2312    0.0000 H       1  UNL1        0.0647
    112 H           3.4030   -8.4712    0.0000 H       1  UNL1        0.0647
    113 H           7.3944    4.9391    0.0000 H       1  UNL1        0.0650
    114 H           6.3352    2.7275    0.0000 H       1  UNL1        0.0621
    115 H           6.2264    4.1391    0.0000 H       1  UNL1        0.0650
    116 H           1.9264   -6.2436    0.0000 H       1  UNL1        0.0584
    117 H           2.3249   -6.9338    0.0000 H       1  UNL1        0.0584
    118 H           3.7320   -9.6612    0.0000 H       1  UNL1        0.2101
    119 H           9.8745    3.4877    0.0000 H       1  UNL1        0.2101
    120 H           2.0000   -8.0412    0.0000 H       1  UNL1        0.2100
    121 H           5.4177    3.7138    0.0000 H       1  UNL1        0.0255
    122 H           4.9417    2.9774    0.0000 H       1  UNL1        0.0255
    123 H           5.6781    2.5014    0.0000 H       1  UNL1        0.0255
    124 H           2.0000   -5.0412    0.0000 H       1  UNL1        0.2095
    125 H           5.8627    5.8325    0.0000 H       1  UNL1        0.0938
    126 H           9.2252    5.0348    0.0000 H       1  UNL1        0.0524
    127 H           9.7011    5.7712    0.0000 H       1  UNL1        0.0524
    128 H           8.9648    6.2471    0.0000 H       1  UNL1        0.0524
    129 H           5.3823    7.1643    0.0000 H       1  UNL1        0.0671
    130 H           6.2955    8.2462    0.0000 H       1  UNL1        0.0648
    131 H           6.3301  -11.1612    0.0000 H       1  UNL1        0.0626
    132 H           7.7331   -8.7312    0.0000 H       1  UNL1        0.0626
    133 H           8.1694    6.6645    0.0000 H       1  UNL1        0.0658
    134 H           7.6890    7.9963    0.0000 H       1  UNL1        0.0647
    135 H           4.4046    6.9543    0.0000 H       1  UNL1        0.2101
    136 H           7.7331  -11.9712    0.0000 H       1  UNL1        0.0618
    137 H           9.1360   -9.5412    0.0000 H       1  UNL1        0.0618
    138 H           8.7542    6.7148    0.0000 H       1  UNL1        0.0725
    139 H           9.3454    7.2494    0.0000 H       1  UNL1        0.0725
    140 H           5.6248    8.9879    0.0000 H       1  UNL1        0.2100
    141 H           9.1360  -11.1612    0.0000 H       1  UNL1        0.0618
    142 H           6.9740    9.2777    0.0000 H       1  UNL1        0.2100
    143 H          11.7165    9.1979    0.0000 H       1  UNL1        0.0626
    144 H           9.0461   10.0593    0.0000 H       1  UNL1        0.0626
    145 H          12.2138   10.7397    0.0000 H       1  UNL1        0.0618
    146 H           9.5434   11.6011    0.0000 H       1  UNL1        0.0618
    147 H          11.1273   11.9413    0.0000 H       1  UNL1        0.0618
@<TRIPOS>BOND
     1    21     1    1
     2     1    94    1
     3    33     2    1
     4    41     2    1
     5    39     3    1
     6    42     3    1
     7     4    41    1
     8     4    46    1
     9     5    42    1
    10     5    49    1
    11    43     6    1
    12     6    53    1
    13    44     7    1
    14     7   118    1
    15    45     8    1
    16     8   119    1
    17    47     9    1
    18     9   120    1
    19    48    10    1
    20    10    55    1
    21    50    11    1
    22    54    11    1
    23    12    51    1
    24    12   124    1
    25    13    53    2
    26    14    54    1
    27    14    61    1
    28    57    15    1
    29    15   135    1
    30    58    16    1
    31    16   140    1
    32    62    17    1
    33    17   142    1
    34    18    65    1
    35    18    67    1
    36    19    67    2
    37    20    21    1
    38    20    24    1
    39    20    25    1
    40    20    31    1
    41    21    22    1
    42    21    27    1
    43    22    23    1
    44    22    30    1
    45    22    74    1
    46    23    26    1
    47    23    28    1
    48    23    75    1
    49    24    29    1
    50    24    33    1
    51    24    76    1
    52    25    28    1
    53    25    77    1
    54    25    78    1
    55    26    32    1
    56    26    34    1
    57    26    36    1
    58    27    29    1
    59    27    79    1
    60    27    80    1
    61    28    81    1
    62    28    82    1
    63    29    83    1
    64    29    84    1
    65    30    35    1
    66    30    85    1
    67    30    86    1
    68    31    87    1
    69    31    88    1
    70    31    89    1
    71    32    35    2
    72    32    37    1
    73    33    40    1
    74    33    90    1
    75    34    38    1
    76    34    91    1
    77    34    92    1
    78    35    93    1
    79    36    95    1
    80    36    96    1
    81    36    97    1
    82    37    39    1
    83    37    98    1
    84    37    99    1
    85    38    39    1
    86    38   100    1
    87    38   101    1
    88    39   102    1
    89    40   103    1
    90    40   104    1
    91    40   105    1
    92    41    43    1
    93    41   106    1
    94    42    45    1
    95    42   107    1
    96    43    44    1
    97    43   108    1
    98    44    47    1
    99    44   109    1
   100    45    48    1
   101    45   110    1
   102    46    47    1
   103    46    51    1
   104    46   111    1
   105    47   112    1
   106    48    50    1
   107    48   113    1
   108    49    50    1
   109    49    52    1
   110    49   114    1
   111    50   115    1
   112    51   116    1
   113    51   117    1
   114    52   121    1
   115    52   122    1
   116    52   123    1
   117    53    56    1
   118    54    57    1
   119    54   125    1
   120    55   126    1
   121    55   127    1
   122    55   128    1
   123    56    59   ar
   124    56    60   ar
   125    57    58    1
   126    57   129    1
   127    58    62    1
   128    58   130    1
   129    59    63   ar
   130    59   131    1
   131    60    64   ar
   132    60   132    1
   133    61    62    1
   134    61    65    1
   135    61   133    1
   136    62   134    1
   137    63    66   ar
   138    63   136    1
   139    64    66   ar
   140    64   137    1
   141    65   138    1
   142    65   139    1
   143    66   141    1
   144    67    68    1
   145    68    69   ar
   146    68    70   ar
   147    69    71   ar
   148    69   143    1
   149    70    72   ar
   150    70   144    1
   151    71    73   ar
   152    71   145    1
   153    72    73   ar
   154    72   146    1
   155    73   147    1
