@<TRIPOS>MOLECULE
IMPHY013850
 24 26 0 0 0
SMALL
GASTEIGER

@<TRIPOS>ATOM
      1 O           5.4641   -1.0000    0.0000 O.2     1  UNL1       -0.2859
      2 O           2.0000    1.0000    0.0000 O.2     1  UNL1       -0.2859
      3 N           3.7320   -2.0000    0.0000 N.pl3   1  UNL1       -0.3239
      4 N           3.7320    2.0000    0.0000 N.pl3   1  UNL1       -0.3239
      5 C           3.2320   -2.8660    0.0000 C.3     1  UNL1        0.0281
      6 C           4.2320   -2.8660    0.0000 C.3     1  UNL1        0.0281
      7 C           4.2320    2.8660    0.0000 C.3     1  UNL1        0.0281
      8 C           3.2320    2.8660    0.0000 C.3     1  UNL1        0.0281
      9 C           3.7320   -1.0000    0.0000 C.2     1  UNL1        0.0809
     10 C           3.7320    1.0000    0.0000 C.2     1  UNL1        0.0809
     11 C           4.5981   -0.5000    0.0000 C.2     1  UNL1        0.2018
     12 C           2.8660    0.5000    0.0000 C.2     1  UNL1        0.2018
     13 C           4.5981    0.5000    0.0000 C.2     1  UNL1        0.0117
     14 C           2.8660   -0.5000    0.0000 C.2     1  UNL1        0.0117
     15 H           2.6494   -2.6540    0.0000 H       1  UNL1        0.0479
     16 H           3.1244   -3.4766    0.0000 H       1  UNL1        0.0479
     17 H           4.3397   -3.4766    0.0000 H       1  UNL1        0.0479
     18 H           4.8147   -2.6540    0.0000 H       1  UNL1        0.0479
     19 H           4.8147    2.6540    0.0000 H       1  UNL1        0.0479
     20 H           4.3397    3.4766    0.0000 H       1  UNL1        0.0479
     21 H           3.1244    3.4766    0.0000 H       1  UNL1        0.0479
     22 H           2.6494    2.6540    0.0000 H       1  UNL1        0.0479
     23 H           5.1350    0.8100    0.0000 H       1  UNL1        0.0676
     24 H           2.3291   -0.8100    0.0000 H       1  UNL1        0.0676
@<TRIPOS>BOND
     1     1    11    2
     2     2    12    2
     3     3     5    1
     4     3     6    1
     5     3     9    1
     6     4     7    1
     7     4     8    1
     8     4    10    1
     9     5     6    1
    10     5    15    1
    11     5    16    1
    12     6    17    1
    13     6    18    1
    14     7     8    1
    15     7    19    1
    16     7    20    1
    17     8    21    1
    18     8    22    1
    19     9    11    1
    20     9    14    2
    21    10    12    1
    22    10    13    2
    23    11    13    1
    24    12    14    1
    25    13    23    1
    26    14    24    1
