@<TRIPOS>MOLECULE
IMPHY017962
 14 14 0 0 0
SMALL
GASTEIGER

@<TRIPOS>ATOM
      1 O           3.8660    2.5000    0.0000 O.2     1  UNL1       -0.2957
      2 C           3.0000   -1.0000    0.0000 C.3     1  UNL1        0.0186
      3 C           3.0000   -2.0000    0.0000 C.3     1  UNL1        0.0087
      4 C           3.8660   -0.5000    0.0000 C.2     1  UNL1       -0.0309
      5 C           3.8660   -2.5000    0.0000 C.3     1  UNL1        0.0260
      6 C           2.0000   -1.0000    0.0000 C.3     1  UNL1        0.0044
      7 C           2.5000   -0.1340    0.0000 C.3     1  UNL1        0.0044
      8 C           4.7321   -1.0000    0.0000 C.2     1  UNL1       -0.0304
      9 C           4.7321   -2.0000    0.0000 C.2     1  UNL1       -0.0307
     10 C           3.8660    0.5000    0.0000 C.2     1  UNL1       -0.0229
     11 C           5.5981   -0.5000    0.0000 C.3     1  UNL1        0.0303
     12 C           3.0000    1.0000    0.0000 C.3     1  UNL1        0.0901
     13 C           3.0000    2.0000    0.0000 C.2     1  UNL1        0.1554
     14 C           2.1340    2.5000    0.0000 C.3     1  UNL1        0.0726
@<TRIPOS>BOND
     1     1    13    2
     2     2     3    1
     3     2     4    1
     4     2     6    1
     5     2     7    1
     6     3     5    1
     7     4     8    1
     8     4    10    2
     9     5     9    1
    10     8     9    2
    11     8    11    1
    12    10    12    1
    13    12    13    1
    14    13    14    1
