@<TRIPOS>MOLECULE
IMPHY013777
 20 19 0 0 0
SMALL
GASTEIGER

@<TRIPOS>ATOM
      1 O           3.7320    0.5600    0.0000 O.3     1  UNL1       -0.4668
      2 O           2.0000    0.5600    0.0000 O.2     1  UNL1       -0.2546
      3 C           6.3301    0.0600    0.0000 C.3     1  UNL1       -0.0502
      4 C           5.4641    0.5600    0.0000 C.3     1  UNL1       -0.0186
      5 C           7.1962    0.5600    0.0000 C.3     1  UNL1       -0.0558
      6 C           4.5981    0.0600    0.0000 C.3     1  UNL1        0.0922
      7 C           8.0622    0.0600    0.0000 C.3     1  UNL1       -0.0653
      8 C           2.8660    0.0600    0.0000 C.2     1  UNL1        0.2943
      9 H           5.9316   -0.4149    0.0000 H       1  UNL1        0.0266
     10 H           6.7287   -0.4149    0.0000 H       1  UNL1        0.0266
     11 H           5.8626    1.0350    0.0000 H       1  UNL1        0.0298
     12 H           5.0656    1.0350    0.0000 H       1  UNL1        0.0298
     13 H           7.5947    1.0350    0.0000 H       1  UNL1        0.0263
     14 H           6.7976    1.0350    0.0000 H       1  UNL1        0.0263
     15 H           4.1996   -0.4149    0.0000 H       1  UNL1        0.0697
     16 H           4.9966   -0.4149    0.0000 H       1  UNL1        0.0697
     17 H           7.7522   -0.4769    0.0000 H       1  UNL1        0.0230
     18 H           8.5991   -0.2500    0.0000 H       1  UNL1        0.0230
     19 H           8.3722    0.5969    0.0000 H       1  UNL1        0.0230
     20 H           2.8660   -0.5600    0.0000 H       1  UNL1        0.1512
@<TRIPOS>BOND
     1     1     6    1
     2     1     8    1
     3     2     8    2
     4     3     4    1
     5     3     5    1
     6     3     9    1
     7     3    10    1
     8     4     6    1
     9     4    11    1
    10     4    12    1
    11     5     7    1
    12     5    13    1
    13     5    14    1
    14     6    15    1
    15     6    16    1
    16     7    17    1
    17     7    18    1
    18     7    19    1
    19     8    20    1
