@<TRIPOS>MOLECULE
IMPHY008959
 25 28 0 0 0
SMALL
GASTEIGER

@<TRIPOS>ATOM
      1 O           5.4221   -0.3954    0.0000 O.3     1  UNL1       -0.3532
      2 O           3.7311    1.3960    0.0000 O.3     1  UNL1       -0.4712
      3 O           2.8486   -0.7164    0.0000 O.3     1  UNL1       -0.4413
      4 O           3.7649   -2.1862    0.0000 O.2     1  UNL1       -0.2448
      5 N           8.8862   -0.3954    0.0000 N.3     1  UNL1       -0.2680
      6 C           8.0202   -0.8954    0.0000 C.3     1  UNL1        0.0816
      7 C           8.0202   -1.8954    0.0000 C.2     1  UNL1       -0.0303
      8 C           7.1542   -0.3954    0.0000 C.3     1  UNL1        0.0526
      9 C           9.6232   -1.0625    0.0000 C.3     1  UNL1        0.0769
     10 C           7.1542   -0.3954    0.0000 C.ar    1  UNL1       -0.0092
     11 C           9.2181   -1.9703    0.0000 C.3     1  UNL1        0.0406
     12 C           8.8862    0.6046    0.0000 C.3     1  UNL1        0.0772
     13 C           6.2881   -0.8954    0.0000 C.3     1  UNL1        0.1216
     14 C           8.0202    1.1046    0.0000 C.3     1  UNL1        0.0435
     15 C           7.1542    0.6046    0.0000 C.ar    1  UNL1       -0.0202
     16 C           6.2881   -1.8954    0.0000 C.3     1  UNL1        0.0550
     17 C           7.1542   -2.3954    0.0000 C.2     1  UNL1       -0.0305
     18 C           5.9487   -1.3291    0.0000 C.ar    1  UNL1        0.0065
     19 C           5.9487    1.5383    0.0000 C.ar    1  UNL1        0.0326
     20 C           4.5797   -0.6578    0.0000 C.ar    1  UNL1        0.1092
     21 C           4.5797    0.8670    0.0000 C.ar    1  UNL1        0.1446
     22 C           5.4221    0.6046    0.0000 C.3     1  UNL1        0.1740
     23 C           3.7311   -1.1868    0.0000 C.2     1  UNL1        0.3443
     24 C           3.7649    2.3954    0.0000 C.3     1  UNL1        0.2525
     25 C           2.0000   -1.2454    0.0000 C.3     1  UNL1        0.2560
@<TRIPOS>BOND
     1     1    13    1
     2     1    22    1
     3     2    21    1
     4     2    24    1
     5     3    23    1
     6     3    25    1
     7     4    23    2
     8     5     6    1
     9     5     9    1
    10     5    12    1
    11     6     7    1
    12     6     8    1
    13     6    10    1
    14     7    11    1
    15     7    17    2
    16     8    13    1
    17     9    11    1
    18    10    15   ar
    19    10    18   ar
    20    12    14    1
    21    13    16    1
    22    14    15    1
    23    15    19   ar
    24    16    17    1
    25    18    20   ar
    26    19    21   ar
    27    20    21   ar
    28    20    23    1
