@<TRIPOS>MOLECULE
IMPHY006104
 33 35 0 0 0
SMALL
GASTEIGER

@<TRIPOS>ATOM
      1 O           6.0682   -1.7550    0.0000 O.2     1  UNL1       -0.4542
      2 O           7.8167    1.2796    0.0000 O.3     1  UNL1       -0.4906
      3 O           9.5984    0.2692    0.0000 O.3     1  UNL1       -0.4914
      4 O           6.0682    1.2450    0.0000 O.2     1  UNL1       -0.2861
      5 O           4.3198    1.2796    0.0000 O.3     1  UNL1       -0.5058
      6 O           2.5381   -1.7791    0.0000 O.3     1  UNL1       -0.5065
      7 C           6.9343   -0.2550    0.0000 C.ar    1  UNL1        0.1098
      8 C           5.2022   -0.2550    0.0000 C.ar    1  UNL1        0.1062
      9 C           6.9343   -1.2550    0.0000 C.ar    1  UNL1        0.1430
     10 C           6.0682    0.2450    0.0000 C.ar    1  UNL1        0.2074
     11 C           5.2022   -1.2550    0.0000 C.ar    1  UNL1        0.1463
     12 C           7.8282    0.2797    0.0000 C.ar    1  UNL1        0.1758
     13 C           8.7343   -0.2341    0.0000 C.ar    1  UNL1        0.1624
     14 C           7.8282   -1.7896    0.0000 C.ar    1  UNL1       -0.0149
     15 C           4.3083    0.2797    0.0000 C.ar    1  UNL1        0.1347
     16 C           4.3083   -1.7896    0.0000 C.ar    1  UNL1        0.0231
     17 C           8.7343   -1.2758    0.0000 C.ar    1  UNL1       -0.0128
     18 C           3.4022   -0.2341    0.0000 C.ar    1  UNL1        0.0223
     19 C           3.4022   -1.2758    0.0000 C.ar    1  UNL1        0.1239
     20 C           8.6768    1.7896    0.0000 C.3     1  UNL1        0.0790
     21 C          10.4663   -0.2275    0.0000 C.3     1  UNL1        0.0790
     22 H           7.8210   -2.4096    0.0000 H       1  UNL1        0.0656
     23 H           4.3154   -2.4096    0.0000 H       1  UNL1        0.0691
     24 H           9.2700   -1.5878    0.0000 H       1  UNL1        0.0656
     25 H           2.8665    0.0779    0.0000 H       1  UNL1        0.0691
     26 H           3.7865    1.5958    0.0000 H       1  UNL1        0.2922
     27 H           8.9930    1.2563    0.0000 H       1  UNL1        0.0660
     28 H           9.2102    2.1058    0.0000 H       1  UNL1        0.0660
     29 H           8.3606    2.3229    0.0000 H       1  UNL1        0.0660
     30 H          10.1584   -0.7656    0.0000 H       1  UNL1        0.0660
     31 H          11.0045   -0.5354    0.0000 H       1  UNL1        0.0660
     32 H          10.7743    0.3107    0.0000 H       1  UNL1        0.0660
     33 H           2.0000   -1.4712    0.0000 H       1  UNL1        0.2921
@<TRIPOS>BOND
     1     1     9   ar
     2     1    11   ar
     3     2    12    1
     4     2    20    1
     5     3    13    1
     6     3    21    1
     7     4    10    2
     8     5    15    1
     9     5    26    1
    10     6    19    1
    11     6    33    1
    12     7     9   ar
    13     7    10   ar
    14     7    12   ar
    15     8    10   ar
    16     8    11   ar
    17     8    15   ar
    18     9    14   ar
    19    11    16   ar
    20    12    13   ar
    21    13    17   ar
    22    14    17   ar
    23    14    22    1
    24    15    18   ar
    25    16    19   ar
    26    16    23    1
    27    17    24    1
    28    18    19   ar
    29    18    25    1
    30    20    27    1
    31    20    28    1
    32    20    29    1
    33    21    30    1
    34    21    31    1
    35    21    32    1
