@<TRIPOS>MOLECULE
IMPHY000245
 72 76 0 0 0
SMALL
GASTEIGER

@<TRIPOS>ATOM
      1 O           5.1350    0.1000    0.0000 O.3     1  UNL1       -0.3768
      2 O           5.0830    2.1484    0.0000 O.3     1  UNL1       -0.4544
      3 O           6.8671   -1.9000    0.0000 O.3     1  UNL1       -0.3410
      4 O           4.2308    0.5969    0.0000 O.2     1  UNL1       -0.2475
      5 O           5.1350   -1.9000    0.0000 O.3     1  UNL1       -0.3405
      6 O           9.4756   -2.4446    0.0000 O.3     1  UNL1       -0.4647
      7 O           7.7437   -2.4246    0.0000 O.2     1  UNL1       -0.2453
      8 O           5.4949    5.2100    0.0000 O.2     1  UNL1       -0.4706
      9 O           6.8671   -3.9000    0.0000 O.3     1  UNL1       -0.3841
     10 O           5.1350   -4.9000    0.0000 O.3     1  UNL1       -0.3864
     11 O           3.4030   -3.9000    0.0000 O.3     1  UNL1       -0.3865
     12 O           2.5369   -2.4000    0.0000 O.3     1  UNL1       -0.3924
     13 C           6.8671    1.1000    0.0000 C.3     1  UNL1        0.0175
     14 C           7.7331    0.6000    0.0000 C.3     1  UNL1       -0.0080
     15 C           6.0010    0.6000    0.0000 C.3     1  UNL1        0.1707
     16 C           7.7331   -0.4000    0.0000 C.2     1  UNL1       -0.0274
     17 C           6.8831    2.1415    0.0000 C.3     1  UNL1       -0.0022
     18 C           6.0010   -0.4000    0.0000 C.3     1  UNL1        0.0174
     19 C           6.8671   -0.9000    0.0000 C.3     1  UNL1        0.0870
     20 C           8.6270    1.1347    0.0000 C.3     1  UNL1       -0.0455
     21 C           7.7331    1.6000    0.0000 C.3     1  UNL1       -0.0557
     22 C           5.9851    2.6693    0.0000 C.3     1  UNL1        0.1316
     23 C           5.0910    1.1068    0.0000 C.2     1  UNL1        0.3404
     24 C           9.5331    0.6208    0.0000 C.3     1  UNL1       -0.0483
     25 C           8.6270   -0.9347    0.0000 C.2     1  UNL1        0.0385
     26 C           9.5331   -0.4208    0.0000 C.3     1  UNL1       -0.0209
     27 C           5.9889    3.6692    0.0000 C.ar    1  UNL1        0.0304
     28 C           6.0010   -2.4000    0.0000 C.3     1  UNL1        0.1886
     29 C           8.6155   -1.9346    0.0000 C.2     1  UNL1        0.3349
     30 C           6.0010   -3.4000    0.0000 C.3     1  UNL1        0.1341
     31 C           5.1350   -3.9000    0.0000 C.3     1  UNL1        0.1141
     32 C           6.8002    4.2539    0.0000 C.ar    1  UNL1       -0.0172
     33 C           4.2690   -2.4000    0.0000 C.3     1  UNL1        0.1130
     34 C           5.1822    4.2602    0.0000 C.ar    1  UNL1        0.0983
     35 C           4.2690   -3.4000    0.0000 C.3     1  UNL1        0.1119
     36 C           6.4949    5.2062    0.0000 C.ar    1  UNL1        0.0921
     37 C           3.4030   -1.9000    0.0000 C.3     1  UNL1        0.0730
     38 C           9.4641   -3.4445    0.0000 C.3     1  UNL1        0.0820
     39 H           8.4725    0.1807    0.0000 H       1  UNL1        0.0353
     40 H           7.4923    2.0260    0.0000 H       1  UNL1        0.0311
     41 H           7.1012    2.7219    0.0000 H       1  UNL1        0.0311
     42 H           5.3905   -0.2923    0.0000 H       1  UNL1        0.0327
     43 H           5.7890   -0.9826    0.0000 H       1  UNL1        0.0327
     44 H           7.4040   -1.2100    0.0000 H       1  UNL1        0.0645
     45 H           9.0207    1.6137    0.0000 H       1  UNL1        0.0271
     46 H           8.2224    1.6044    0.0000 H       1  UNL1        0.0271
     47 H           8.0431    1.0631    0.0000 H       1  UNL1        0.0236
     48 H           8.2700    1.9100    0.0000 H       1  UNL1        0.0236
     49 H           7.4231    2.1369    0.0000 H       1  UNL1        0.0236
     50 H           5.4488    2.9803    0.0000 H       1  UNL1        0.0786
     51 H          10.1440    0.5147    0.0000 H       1  UNL1        0.0269
     52 H           9.7422    1.2045    0.0000 H       1  UNL1        0.0269
     53 H           9.7422   -1.0045    0.0000 H       1  UNL1        0.0315
     54 H          10.1440   -0.3147    0.0000 H       1  UNL1        0.0315
     55 H           5.1350   -0.5200    0.0000 H       1  UNL1        0.2109
     56 H           6.0010   -1.7800    0.0000 H       1  UNL1        0.0938
     57 H           6.0010   -4.0200    0.0000 H       1  UNL1        0.0671
     58 H           4.5981   -4.2100    0.0000 H       1  UNL1        0.0648
     59 H           4.2690   -1.7800    0.0000 H       1  UNL1        0.0647
     60 H           7.3891    4.0601    0.0000 H       1  UNL1        0.0653
     61 H           3.7320   -3.0900    0.0000 H       1  UNL1        0.0647
     62 H           4.5918    4.0708    0.0000 H       1  UNL1        0.1033
     63 H           6.8612    5.7063    0.0000 H       1  UNL1        0.1029
     64 H           3.8015   -1.4251    0.0000 H       1  UNL1        0.0584
     65 H           3.0044   -1.4251    0.0000 H       1  UNL1        0.0584
     66 H           6.8671   -4.5200    0.0000 H       1  UNL1        0.2101
     67 H           4.5981   -5.2100    0.0000 H       1  UNL1        0.2100
     68 H           3.4030   -4.5200    0.0000 H       1  UNL1        0.2100
     69 H           8.8441   -3.4373    0.0000 H       1  UNL1        0.0661
     70 H           9.4569   -4.0645    0.0000 H       1  UNL1        0.0661
     71 H          10.0840   -3.4517    0.0000 H       1  UNL1        0.0661
     72 H           2.0000   -2.0900    0.0000 H       1  UNL1        0.2095
@<TRIPOS>BOND
     1    15     1    1
     2     1    55    1
     3     2    22    1
     4     2    23    1
     5    19     3    1
     6    28     3    1
     7     4    23    2
     8     5    28    1
     9     5    33    1
    10     6    29    1
    11     6    38    1
    12     7    29    2
    13     8    34   ar
    14     8    36   ar
    15    30     9    1
    16     9    66    1
    17    31    10    1
    18    10    67    1
    19    35    11    1
    20    11    68    1
    21    12    37    1
    22    12    72    1
    23    13    14    1
    24    13    15    1
    25    13    17    1
    26    13    21    1
    27    14    16    1
    28    14    20    1
    29    14    39    1
    30    15    18    1
    31    15    23    1
    32    16    19    1
    33    16    25    2
    34    17    22    1
    35    17    40    1
    36    17    41    1
    37    18    19    1
    38    18    42    1
    39    18    43    1
    40    19    44    1
    41    20    24    1
    42    20    45    1
    43    20    46    1
    44    21    47    1
    45    21    48    1
    46    21    49    1
    47    22    27    1
    48    22    50    1
    49    24    26    1
    50    24    51    1
    51    24    52    1
    52    25    26    1
    53    25    29    1
    54    26    53    1
    55    26    54    1
    56    27    32   ar
    57    27    34   ar
    58    28    30    1
    59    28    56    1
    60    30    31    1
    61    30    57    1
    62    31    35    1
    63    31    58    1
    64    32    36   ar
    65    32    60    1
    66    33    35    1
    67    33    37    1
    68    33    59    1
    69    34    62    1
    70    35    61    1
    71    36    63    1
    72    37    64    1
    73    37    65    1
    74    38    69    1
    75    38    70    1
    76    38    71    1
