@<TRIPOS>MOLECULE
IMPHY005892
 44 46 0 0 0
SMALL
GASTEIGER

@<TRIPOS>ATOM
      1 O           6.0682   -1.1900    0.0000 O.2     1  UNL1       -0.4539
      2 O           6.0682    1.8100    0.0000 O.2     1  UNL1       -0.2866
      3 O           4.3198    1.8446    0.0000 O.3     1  UNL1       -0.5058
      4 O           6.9343   -2.6900    0.0000 O.3     1  UNL1       -0.5059
      5 O           2.5381   -1.2142    0.0000 O.3     1  UNL1       -0.5065
      6 O          10.3984   -2.6900    0.0000 O.3     1  UNL1       -0.5066
      7 C           6.9343    0.3100    0.0000 C.ar    1  UNL1        0.0467
      8 C           6.9343   -0.6900    0.0000 C.ar    1  UNL1        0.1462
      9 C           7.8003    0.8100    0.0000 C.3     1  UNL1       -0.0021
     10 C           5.2022    0.3100    0.0000 C.ar    1  UNL1        0.1058
     11 C           6.0682    0.8100    0.0000 C.ar    1  UNL1        0.2001
     12 C           5.2022   -0.6900    0.0000 C.ar    1  UNL1        0.1463
     13 C           7.8003   -1.1900    0.0000 C.ar    1  UNL1        0.0593
     14 C           4.3083    0.8447    0.0000 C.ar    1  UNL1        0.1347
     15 C           7.8003    1.8100    0.0000 C.2     1  UNL1       -0.0807
     16 C           4.3083   -1.2247    0.0000 C.ar    1  UNL1        0.0231
     17 C           7.8003   -2.1900    0.0000 C.ar    1  UNL1        0.1310
     18 C           8.6663   -0.6900    0.0000 C.ar    1  UNL1       -0.0441
     19 C           3.4022    0.3308    0.0000 C.ar    1  UNL1        0.0223
     20 C           3.4022   -0.7108    0.0000 C.ar    1  UNL1        0.1239
     21 C           8.6663    2.3100    0.0000 C.2     1  UNL1       -0.0793
     22 C           8.6663   -2.6900    0.0000 C.ar    1  UNL1        0.0220
     23 C           9.5323   -1.1900    0.0000 C.ar    1  UNL1       -0.0193
     24 C           9.5323   -2.1900    0.0000 C.ar    1  UNL1        0.1204
     25 C           8.6663    3.3100    0.0000 C.3     1  UNL1       -0.0440
     26 C           9.5323    1.8100    0.0000 C.3     1  UNL1       -0.0440
     27 H           8.0124    0.2274    0.0000 H       1  UNL1        0.0358
     28 H           8.4109    0.9177    0.0000 H       1  UNL1        0.0358
     29 H           7.2634    2.1200    0.0000 H       1  UNL1        0.0575
     30 H           4.3154   -1.8446    0.0000 H       1  UNL1        0.0691
     31 H           8.6663   -0.0700    0.0000 H       1  UNL1        0.0627
     32 H           2.8665    0.6429    0.0000 H       1  UNL1        0.0691
     33 H           8.6663   -3.3100    0.0000 H       1  UNL1        0.0691
     34 H          10.0693   -0.8800    0.0000 H       1  UNL1        0.0654
     35 H           9.2863    3.3100    0.0000 H       1  UNL1        0.0274
     36 H           9.2224    1.2731    0.0000 H       1  UNL1        0.0274
     37 H          10.0693    1.5000    0.0000 H       1  UNL1        0.0274
     38 H           9.8424    2.3469    0.0000 H       1  UNL1        0.0274
     39 H           8.6663    3.9300    0.0000 H       1  UNL1        0.0274
     40 H           8.0463    3.3100    0.0000 H       1  UNL1        0.0274
     41 H           3.7865    2.1608    0.0000 H       1  UNL1        0.2922
     42 H           6.9343   -3.3100    0.0000 H       1  UNL1        0.2922
     43 H           2.0000   -0.9062    0.0000 H       1  UNL1        0.2921
     44 H          10.9353   -2.3800    0.0000 H       1  UNL1        0.2921
@<TRIPOS>BOND
     1     1     8   ar
     2     1    12   ar
     3     2    11    2
     4     3    14    1
     5     3    41    1
     6     4    17    1
     7     4    42    1
     8     5    20    1
     9     5    43    1
    10     6    24    1
    11     6    44    1
    12     7     8   ar
    13     7     9    1
    14     7    11   ar
    15     8    13    1
    16     9    15    1
    17     9    27    1
    18     9    28    1
    19    10    11   ar
    20    10    12   ar
    21    10    14   ar
    22    12    16   ar
    23    13    17   ar
    24    13    18   ar
    25    14    19   ar
    26    15    21    2
    27    15    29    1
    28    16    20   ar
    29    16    30    1
    30    17    22   ar
    31    18    23   ar
    32    18    31    1
    33    19    20   ar
    34    19    32    1
    35    21    25    1
    36    21    26    1
    37    22    24   ar
    38    22    33    1
    39    23    24   ar
    40    23    34    1
    41    25    35    1
    42    25    39    1
    43    25    40    1
    44    26    36    1
    45    26    37    1
    46    26    38    1
