@<TRIPOS>MOLECULE
IMPHY002714
 63 68 0 0 0
SMALL
GASTEIGER

@<TRIPOS>ATOM
      1 O           8.1421    2.1387    0.0000 O.3     1  UNL1       -0.4824
      2 O           4.6501   -1.8266    0.0000 O.3     1  UNL1       -0.4830
      3 O           8.1305    5.2080    0.0000 O.2     1  UNL1       -0.2918
      4 O           4.6501    2.1734    0.0000 O.3     1  UNL1       -0.5060
      5 O           8.1142    1.1734    0.0000 O.3     1  UNL1       -0.5029
      6 O           8.1142   -0.8266    0.0000 O.3     1  UNL1       -0.5033
      7 O           2.0520   -0.3266    0.0000 O.2     1  UNL1       -0.2918
      8 O          12.5122    2.6392    0.0000 O.3     1  UNL1       -0.5032
      9 O          10.7686   -0.3541    0.0000 O.3     1  UNL1       -0.5032
     10 O           2.9059   -4.8959    0.0000 O.3     1  UNL1       -0.5066
     11 O          12.5045    0.6392    0.0000 O.3     1  UNL1       -0.5009
     12 C           9.0482    2.6526    0.0000 C.3     1  UNL1        0.1324
     13 C           4.6501   -0.8266    0.0000 C.3     1  UNL1        0.1323
     14 C           9.0482    3.6942    0.0000 C.3     1  UNL1        0.0519
     15 C           7.2482    2.6734    0.0000 C.ar    1  UNL1        0.1431
     16 C           6.3821    2.1734    0.0000 C.ar    1  UNL1        0.0695
     17 C           5.5161   -0.3266    0.0000 C.ar    1  UNL1       -0.0027
     18 C           7.2482    3.6734    0.0000 C.ar    1  UNL1        0.0600
     19 C           3.7841   -0.3266    0.0000 C.3     1  UNL1        0.0519
     20 C           6.3821    1.1734    0.0000 C.ar    1  UNL1        0.0346
     21 C           8.1421    4.2080    0.0000 C.2     1  UNL1        0.1705
     22 C           5.5161    0.6734    0.0000 C.ar    1  UNL1       -0.0434
     23 C           9.9123    2.1492    0.0000 C.ar    1  UNL1        0.0002
     24 C           5.5161    2.6734    0.0000 C.ar    1  UNL1        0.1282
     25 C           2.9180   -0.8266    0.0000 C.2     1  UNL1        0.1705
     26 C           6.3821   -0.8266    0.0000 C.ar    1  UNL1       -0.0098
     27 C           7.2482    0.6734    0.0000 C.ar    1  UNL1        0.1663
     28 C           6.3821    4.1734    0.0000 C.ar    1  UNL1       -0.0443
     29 C           2.9180   -1.8266    0.0000 C.ar    1  UNL1        0.0594
     30 C           3.7841   -2.3266    0.0000 C.ar    1  UNL1        0.1353
     31 C           7.2482   -0.3266    0.0000 C.ar    1  UNL1        0.1592
     32 C           5.5161    3.6734    0.0000 C.ar    1  UNL1       -0.0187
     33 C           9.9084    1.1492    0.0000 C.ar    1  UNL1       -0.0096
     34 C          10.7802    2.6459    0.0000 C.ar    1  UNL1       -0.0096
     35 C           2.0080   -2.3335    0.0000 C.ar    1  UNL1       -0.0443
     36 C           3.8001   -3.3681    0.0000 C.ar    1  UNL1        0.0223
     37 C          11.6443    2.1425    0.0000 C.ar    1  UNL1        0.1623
     38 C          10.7725    0.6459    0.0000 C.ar    1  UNL1        0.1623
     39 C           2.9021   -3.8959    0.0000 C.ar    1  UNL1        0.1204
     40 C          11.6404    1.1425    0.0000 C.ar    1  UNL1        0.2006
     41 C           2.0000   -3.3751    0.0000 C.ar    1  UNL1       -0.0193
     42 H           9.0446    2.0326    0.0000 H       1  UNL1        0.0789
     43 H           5.1870   -1.1366    0.0000 H       1  UNL1        0.0789
     44 H           9.6590    3.5881    0.0000 H       1  UNL1        0.0385
     45 H           9.2572    4.2779    0.0000 H       1  UNL1        0.0385
     46 H           4.1826    0.1483    0.0000 H       1  UNL1        0.0385
     47 H           3.3855    0.1483    0.0000 H       1  UNL1        0.0385
     48 H           4.9792    0.9834    0.0000 H       1  UNL1        0.0629
     49 H           6.3821   -1.4466    0.0000 H       1  UNL1        0.0659
     50 H           6.3821    4.7934    0.0000 H       1  UNL1        0.0627
     51 H           4.9792    3.9834    0.0000 H       1  UNL1        0.0654
     52 H           9.3703    0.8413    0.0000 H       1  UNL1        0.0659
     53 H          10.7826    3.2659    0.0000 H       1  UNL1        0.0659
     54 H           1.4747   -2.0173    0.0000 H       1  UNL1        0.0627
     55 H           4.3406   -3.6719    0.0000 H       1  UNL1        0.0691
     56 H           1.4619   -3.6830    0.0000 H       1  UNL1        0.0654
     57 H           4.1132    2.4834    0.0000 H       1  UNL1        0.2922
     58 H           8.6511    0.8634    0.0000 H       1  UNL1        0.2923
     59 H           8.1142   -1.4466    0.0000 H       1  UNL1        0.2923
     60 H          12.5146    3.2592    0.0000 H       1  UNL1        0.2923
     61 H          11.3044   -0.6662    0.0000 H       1  UNL1        0.2923
     62 H           2.3702   -5.2080    0.0000 H       1  UNL1        0.2921
     63 H          13.0427    0.9471    0.0000 H       1  UNL1        0.2924
@<TRIPOS>BOND
     1     1    12    1
     2     1    15    1
     3     2    13    1
     4     2    30    1
     5     3    21    2
     6     4    24    1
     7     4    57    1
     8     5    27    1
     9     5    58    1
    10     6    31    1
    11     6    59    1
    12     7    25    2
    13     8    37    1
    14     8    60    1
    15     9    38    1
    16     9    61    1
    17    10    39    1
    18    10    62    1
    19    11    40    1
    20    11    63    1
    21    12    14    1
    22    12    23    1
    23    12    42    1
    24    13    17    1
    25    13    19    1
    26    13    43    1
    27    14    21    1
    28    14    44    1
    29    14    45    1
    30    15    16   ar
    31    15    18   ar
    32    16    20    1
    33    16    24   ar
    34    17    22   ar
    35    17    26   ar
    36    18    21    1
    37    18    28   ar
    38    19    25    1
    39    19    46    1
    40    19    47    1
    41    20    22   ar
    42    20    27   ar
    43    22    48    1
    44    23    33   ar
    45    23    34   ar
    46    24    32   ar
    47    25    29    1
    48    26    31   ar
    49    26    49    1
    50    27    31   ar
    51    28    32   ar
    52    28    50    1
    53    29    30   ar
    54    29    35   ar
    55    30    36   ar
    56    32    51    1
    57    33    38   ar
    58    33    52    1
    59    34    37   ar
    60    34    53    1
    61    35    41   ar
    62    35    54    1
    63    36    39   ar
    64    36    55    1
    65    37    40   ar
    66    38    40   ar
    67    39    41   ar
    68    41    56    1
