@<TRIPOS>MOLECULE
IMPHY012223
 81 85 0 0 0
SMALL
GASTEIGER

@<TRIPOS>ATOM
      1 O           2.5357   -2.5933    0.0000 O.3     1  UNL1       -0.3912
      2 C           7.0628   -1.0410    0.0000 C.3     1  UNL1       -0.0194
      3 C           6.1968   -0.5410    0.0000 C.3     1  UNL1       -0.0257
      4 C           5.2868   -1.0478    0.0000 C.3     1  UNL1       -0.0250
      5 C           7.9288   -0.5410    0.0000 C.3     1  UNL1       -0.0051
      6 C           5.2787   -2.0894    0.0000 C.3     1  UNL1       -0.0278
      7 C           7.0789   -2.0825    0.0000 C.3     1  UNL1       -0.0463
      8 C           7.9288    0.4590    0.0000 C.2     1  UNL1       -0.0634
      9 C           6.1808   -2.6102    0.0000 C.3     1  UNL1       -0.0486
     10 C           8.8228    0.9937    0.0000 C.3     1  UNL1       -0.0135
     11 C           4.3433   -2.6391    0.0000 C.3     1  UNL1       -0.0056
     12 C           9.7288    0.4799    0.0000 C.3     1  UNL1       -0.0255
     13 C           8.8228   -1.0756    0.0000 C.3     1  UNL1       -0.0429
     14 C           6.1968    0.4590    0.0000 C.3     1  UNL1       -0.0306
     15 C           4.3599   -0.4837    0.0000 C.3     1  UNL1       -0.0447
     16 C           9.7288   -0.5618    0.0000 C.3     1  UNL1       -0.0463
     17 C           7.7056   -1.8070    0.0000 C.3     1  UNL1       -0.0585
     18 C           7.0628    0.9590    0.0000 C.2     1  UNL1       -0.0836
     19 C           3.4037   -2.0966    0.0000 C.3     1  UNL1        0.0606
     20 C           5.2945   -0.0478    0.0000 C.3     1  UNL1       -0.0590
     21 C           8.2709   -1.4806    0.0000 C.3     1  UNL1       -0.0553
     22 C           3.4120   -1.0117    0.0000 C.3     1  UNL1       -0.0258
     23 C           8.7977    2.0784    0.0000 C.3     1  UNL1       -0.0408
     24 C          10.6726    1.0151    0.0000 C.3     1  UNL1       -0.0466
     25 C           9.7288    2.6353    0.0000 C.3     1  UNL1       -0.0343
     26 C          10.6726    2.1001    0.0000 C.3     1  UNL1       -0.0473
     27 C           3.8467   -3.5071    0.0000 C.3     1  UNL1       -0.0572
     28 C           4.8466   -3.5032    0.0000 C.3     1  UNL1       -0.0572
     29 C          10.5987   -0.0135    0.0000 C.3     1  UNL1       -0.0590
     30 C          10.2188    3.5071    0.0000 C.3     1  UNL1       -0.0598
     31 C           9.2188    3.4955    0.0000 C.3     1  UNL1       -0.0598
     32 H           6.9329   -0.1160    0.0000 H       1  UNL1        0.0315
     33 H           5.2820   -2.9394    0.0000 H       1  UNL1        0.0312
     34 H           7.2969   -2.6629    0.0000 H       1  UNL1        0.0271
     35 H           7.6880   -1.9670    0.0000 H       1  UNL1        0.0271
     36 H           5.7835   -3.0862    0.0000 H       1  UNL1        0.0268
     37 H           6.5818   -3.0831    0.0000 H       1  UNL1        0.0268
     38 H           9.5522    1.4300    0.0000 H       1  UNL1        0.0351
     39 H           8.4182   -1.5454    0.0000 H       1  UNL1        0.0274
     40 H           9.2164   -1.5546    0.0000 H       1  UNL1        0.0274
     41 H           5.9847    1.0416    0.0000 H       1  UNL1        0.0310
     42 H           5.5862    0.3514    0.0000 H       1  UNL1        0.0310
     43 H           4.7681   -0.0171    0.0000 H       1  UNL1        0.0271
     44 H           3.9700   -0.0017    0.0000 H       1  UNL1        0.0271
     45 H           9.9379   -1.1455    0.0000 H       1  UNL1        0.0271
     46 H          10.3397   -0.4557    0.0000 H       1  UNL1        0.0271
     47 H           7.2306   -2.2055    0.0000 H       1  UNL1        0.0235
     48 H           8.1041   -2.2820    0.0000 H       1  UNL1        0.0235
     49 H           8.1805   -1.4085    0.0000 H       1  UNL1        0.0235
     50 H           7.0628    1.5790    0.0000 H       1  UNL1        0.0572
     51 H           3.4025   -2.7166    0.0000 H       1  UNL1        0.0599
     52 H           5.9145   -0.0526    0.0000 H       1  UNL1        0.0235
     53 H           5.2993    0.5721    0.0000 H       1  UNL1        0.0235
     54 H           4.6745   -0.0431    0.0000 H       1  UNL1        0.0235
     55 H           7.6884   -1.6927    0.0000 H       1  UNL1        0.0238
     56 H           8.4830   -2.0632    0.0000 H       1  UNL1        0.0238
     57 H           8.8535   -1.2685    0.0000 H       1  UNL1        0.0238
     58 H           3.2075   -0.4264    0.0000 H       1  UNL1        0.0290
     59 H           2.8004   -1.1131    0.0000 H       1  UNL1        0.0290
     60 H           8.5752    2.6571    0.0000 H       1  UNL1        0.0276
     61 H           8.1894    1.9582    0.0000 H       1  UNL1        0.0276
     62 H          10.8817    0.4314    0.0000 H       1  UNL1        0.0271
     63 H          11.2835    1.1212    0.0000 H       1  UNL1        0.0271
     64 H          11.2835    1.9940    0.0000 H       1  UNL1        0.0271
     65 H          10.8817    2.6838    0.0000 H       1  UNL1        0.0271
     66 H           3.3085   -3.1992    0.0000 H       1  UNL1        0.0236
     67 H           3.5387   -4.0452    0.0000 H       1  UNL1        0.0236
     68 H           4.3848   -3.8150    0.0000 H       1  UNL1        0.0236
     69 H           4.3109   -3.8153    0.0000 H       1  UNL1        0.0236
     70 H           5.1587   -4.0390    0.0000 H       1  UNL1        0.0236
     71 H           5.3824   -3.1912    0.0000 H       1  UNL1        0.0236
     72 H          10.2928   -0.5528    0.0000 H       1  UNL1        0.0235
     73 H          11.1380   -0.3193    0.0000 H       1  UNL1        0.0235
     74 H          10.9045    0.5259    0.0000 H       1  UNL1        0.0235
     75 H          10.7593    3.2033    0.0000 H       1  UNL1        0.0235
     76 H          10.5226    4.0476    0.0000 H       1  UNL1        0.0235
     77 H           9.6783    3.8108    0.0000 H       1  UNL1        0.0235
     78 H           9.7522    3.8117    0.0000 H       1  UNL1        0.0235
     79 H           8.9027    4.0288    0.0000 H       1  UNL1        0.0235
     80 H           8.6855    3.1793    0.0000 H       1  UNL1        0.0235
     81 H           2.0000   -2.2812    0.0000 H       1  UNL1        0.2098
@<TRIPOS>BOND
     1    19     1    1
     2     1    81    1
     3     2     3    1
     4     2     5    1
     5     2     7    1
     6     2    17    1
     7     3     4    1
     8     3    14    1
     9     3    32    1
    10     4     6    1
    11     4    15    1
    12     4    20    1
    13     5     8    1
    14     5    13    1
    15     5    21    1
    16     6     9    1
    17     6    11    1
    18     6    33    1
    19     7     9    1
    20     7    34    1
    21     7    35    1
    22     8    10    1
    23     8    18    2
    24     9    36    1
    25     9    37    1
    26    10    12    1
    27    10    23    1
    28    10    38    1
    29    11    19    1
    30    11    27    1
    31    11    28    1
    32    12    16    1
    33    12    24    1
    34    12    29    1
    35    13    16    1
    36    13    39    1
    37    13    40    1
    38    14    18    1
    39    14    41    1
    40    14    42    1
    41    15    22    1
    42    15    43    1
    43    15    44    1
    44    16    45    1
    45    16    46    1
    46    17    47    1
    47    17    48    1
    48    17    49    1
    49    18    50    1
    50    19    22    1
    51    19    51    1
    52    20    52    1
    53    20    53    1
    54    20    54    1
    55    21    55    1
    56    21    56    1
    57    21    57    1
    58    22    58    1
    59    22    59    1
    60    23    25    1
    61    23    60    1
    62    23    61    1
    63    24    26    1
    64    24    62    1
    65    24    63    1
    66    25    26    1
    67    25    30    1
    68    25    31    1
    69    26    64    1
    70    26    65    1
    71    27    66    1
    72    27    67    1
    73    27    68    1
    74    28    69    1
    75    28    70    1
    76    28    71    1
    77    29    72    1
    78    29    73    1
    79    29    74    1
    80    30    75    1
    81    30    76    1
    82    30    77    1
    83    31    78    1
    84    31    79    1
    85    31    80    1
