@<TRIPOS>MOLECULE
IMPHY010053
 53 52 0 0 0
SMALL
GASTEIGER

@<TRIPOS>ATOM
      1 O          17.5885    0.2500    0.0000 O.3     1  UNL1       -0.3950
      2 C          13.2583   -0.2500    0.0000 C.3     1  UNL1       -0.0530
      3 C          14.1244    0.2500    0.0000 C.3     1  UNL1       -0.0530
      4 C          12.3923    0.2500    0.0000 C.3     1  UNL1       -0.0528
      5 C          14.9904   -0.2500    0.0000 C.3     1  UNL1       -0.0510
      6 C          11.5263   -0.2500    0.0000 C.3     1  UNL1       -0.0496
      7 C          15.8564    0.2500    0.0000 C.3     1  UNL1       -0.0297
      8 C          10.6603    0.2500    0.0000 C.3     1  UNL1       -0.0348
      9 C          16.7224   -0.2500    0.0000 C.3     1  UNL1        0.0442
     10 C           4.5981   -0.2500    0.0000 C.3     1  UNL1       -0.0496
     11 C           3.7320    0.2500    0.0000 C.3     1  UNL1       -0.0530
     12 C           9.7942   -0.2500    0.0000 C.2     1  UNL1       -0.0876
     13 C           5.4641    0.2500    0.0000 C.3     1  UNL1       -0.0348
     14 C           2.8660   -0.2500    0.0000 C.3     1  UNL1       -0.0559
     15 C           8.9282    0.2500    0.0000 C.2     1  UNL1       -0.0842
     16 C           8.0622   -0.2500    0.0000 C.3     1  UNL1       -0.0165
     17 C           6.3301   -0.2500    0.0000 C.2     1  UNL1       -0.0876
     18 C           7.1962    0.2500    0.0000 C.2     1  UNL1       -0.0842
     19 C           2.0000    0.2500    0.0000 C.3     1  UNL1       -0.0653
     20 H          12.8598   -0.7249    0.0000 H       1  UNL1        0.0265
     21 H          13.6569   -0.7249    0.0000 H       1  UNL1        0.0265
     22 H          14.5229    0.7249    0.0000 H       1  UNL1        0.0265
     23 H          13.7258    0.7249    0.0000 H       1  UNL1        0.0265
     24 H          12.7908    0.7249    0.0000 H       1  UNL1        0.0265
     25 H          11.9938    0.7249    0.0000 H       1  UNL1        0.0265
     26 H          14.5919   -0.7249    0.0000 H       1  UNL1        0.0266
     27 H          15.3889   -0.7249    0.0000 H       1  UNL1        0.0266
     28 H          11.1278   -0.7249    0.0000 H       1  UNL1        0.0268
     29 H          11.9248   -0.7249    0.0000 H       1  UNL1        0.0268
     30 H          16.2549    0.7249    0.0000 H       1  UNL1        0.0287
     31 H          15.4579    0.7249    0.0000 H       1  UNL1        0.0287
     32 H          11.0588    0.7249    0.0000 H       1  UNL1        0.0307
     33 H          10.2617    0.7249    0.0000 H       1  UNL1        0.0307
     34 H          16.3239   -0.7249    0.0000 H       1  UNL1        0.0557
     35 H          17.1210   -0.7249    0.0000 H       1  UNL1        0.0557
     36 H           4.1996   -0.7249    0.0000 H       1  UNL1        0.0268
     37 H           4.9966   -0.7249    0.0000 H       1  UNL1        0.0268
     38 H           4.1306    0.7249    0.0000 H       1  UNL1        0.0265
     39 H           3.3335    0.7249    0.0000 H       1  UNL1        0.0265
     40 H           9.7942   -0.8700    0.0000 H       1  UNL1        0.0569
     41 H           5.8626    0.7249    0.0000 H       1  UNL1        0.0307
     42 H           5.0656    0.7249    0.0000 H       1  UNL1        0.0307
     43 H           2.4675   -0.7249    0.0000 H       1  UNL1        0.0263
     44 H           3.2646   -0.7249    0.0000 H       1  UNL1        0.0263
     45 H           8.9282    0.8700    0.0000 H       1  UNL1        0.0572
     46 H           7.6636   -0.7249    0.0000 H       1  UNL1        0.0350
     47 H           8.4607   -0.7249    0.0000 H       1  UNL1        0.0350
     48 H           6.3301   -0.8700    0.0000 H       1  UNL1        0.0569
     49 H           7.1962    0.8700    0.0000 H       1  UNL1        0.0572
     50 H           2.3100    0.7869    0.0000 H       1  UNL1        0.0230
     51 H           1.4631    0.5600    0.0000 H       1  UNL1        0.0230
     52 H           1.6900   -0.2869    0.0000 H       1  UNL1        0.0230
     53 H          18.1254   -0.0600    0.0000 H       1  UNL1        0.2094
@<TRIPOS>BOND
     1     1     9    1
     2     1    53    1
     3     2     3    1
     4     2     4    1
     5     2    20    1
     6     2    21    1
     7     3     5    1
     8     3    22    1
     9     3    23    1
    10     4     6    1
    11     4    24    1
    12     4    25    1
    13     5     7    1
    14     5    26    1
    15     5    27    1
    16     6     8    1
    17     6    28    1
    18     6    29    1
    19     7     9    1
    20     7    30    1
    21     7    31    1
    22     8    12    1
    23     8    32    1
    24     8    33    1
    25     9    34    1
    26     9    35    1
    27    10    11    1
    28    10    13    1
    29    10    36    1
    30    10    37    1
    31    11    14    1
    32    11    38    1
    33    11    39    1
    34    12    15    2
    35    12    40    1
    36    13    17    1
    37    13    41    1
    38    13    42    1
    39    14    19    1
    40    14    43    1
    41    14    44    1
    42    15    16    1
    43    15    45    1
    44    16    18    1
    45    16    46    1
    46    16    47    1
    47    17    18    2
    48    17    48    1
    49    18    49    1
    50    19    50    1
    51    19    51    1
    52    19    52    1
