@<TRIPOS>MOLECULE
IMPHY000068
 43 46 0 0 0
SMALL
GASTEIGER

@<TRIPOS>ATOM
      1 O           9.0382    0.8006    0.0000 O.3     1  UNL1       -0.4814
      2 O           5.5022    0.8284    0.0000 O.2     1  UNL1       -0.4538
      3 O           7.2622   -2.2063    0.0000 O.3     1  UNL1       -0.4942
      4 O           5.5138   -2.2409    0.0000 O.2     1  UNL1       -0.2869
      5 C           9.0462    1.8422    0.0000 C.3     1  UNL1        0.1235
      6 C           7.2622    0.7937    0.0000 C.ar    1  UNL1        0.0597
      7 C           8.1282    0.2937    0.0000 C.ar    1  UNL1        0.1359
      8 C           8.1441    2.3630    0.0000 C.2     1  UNL1       -0.0408
      9 C           6.3961    0.2937    0.0000 C.ar    1  UNL1        0.1534
     10 C           7.2461    1.8352    0.0000 C.2     1  UNL1       -0.0478
     11 C           6.3961   -0.7063    0.0000 C.ar    1  UNL1        0.1063
     12 C           9.5496    2.7063    0.0000 C.3     1  UNL1       -0.0215
     13 C          10.0462    1.8383    0.0000 C.3     1  UNL1       -0.0215
     14 C           8.1282   -0.7063    0.0000 C.ar    1  UNL1        0.0234
     15 C           7.2622   -1.2063    0.0000 C.ar    1  UNL1        0.1379
     16 C           5.5022   -1.2409    0.0000 C.ar    1  UNL1        0.1966
     17 C           4.5961    0.3145    0.0000 C.ar    1  UNL1        0.1393
     18 C           4.5961   -0.7271    0.0000 C.ar    1  UNL1        0.0288
     19 C           3.7320    0.8179    0.0000 C.ar    1  UNL1        0.0174
     20 C           3.7359    1.8179    0.0000 C.ar    1  UNL1       -0.0511
     21 C           2.8641    0.3212    0.0000 C.ar    1  UNL1       -0.0511
     22 C           8.1282   -2.7063    0.0000 C.3     1  UNL1        0.0788
     23 C           2.8718    2.3212    0.0000 C.ar    1  UNL1       -0.0611
     24 C           2.0000    0.8246    0.0000 C.ar    1  UNL1       -0.0611
     25 C           2.0038    1.8246    0.0000 C.ar    1  UNL1       -0.0617
     26 H           8.1418    2.9830    0.0000 H       1  UNL1        0.0611
     27 H           6.7056    2.1390    0.0000 H       1  UNL1        0.0624
     28 H          10.0853    2.3942    0.0000 H       1  UNL1        0.0271
     29 H           9.8616    3.2420    0.0000 H       1  UNL1        0.0271
     30 H           9.0138    3.0183    0.0000 H       1  UNL1        0.0271
     31 H          10.0438    1.2183    0.0000 H       1  UNL1        0.0271
     32 H          10.6662    1.8359    0.0000 H       1  UNL1        0.0271
     33 H          10.0486    2.4583    0.0000 H       1  UNL1        0.0271
     34 H           8.6651   -1.0163    0.0000 H       1  UNL1        0.0691
     35 H           4.0604   -1.0392    0.0000 H       1  UNL1        0.0693
     36 H           4.2740    2.1258    0.0000 H       1  UNL1        0.0625
     37 H           2.8617   -0.2988    0.0000 H       1  UNL1        0.0625
     38 H           7.8182   -3.2432    0.0000 H       1  UNL1        0.0660
     39 H           8.6651   -3.0163    0.0000 H       1  UNL1        0.0660
     40 H           8.4382   -2.1693    0.0000 H       1  UNL1        0.0660
     41 H           2.8742    2.9412    0.0000 H       1  UNL1        0.0618
     42 H           1.4619    0.5166    0.0000 H       1  UNL1        0.0618
     43 H           1.4681    2.1366    0.0000 H       1  UNL1        0.0618
@<TRIPOS>BOND
     1     1     5    1
     2     1     7    1
     3     2     9   ar
     4     2    17   ar
     5     3    15    1
     6     3    22    1
     7     4    16    2
     8     5     8    1
     9     5    12    1
    10     5    13    1
    11     6     7   ar
    12     6     9   ar
    13     6    10    1
    14     7    14   ar
    15     8    10    2
    16     8    26    1
    17     9    11   ar
    18    10    27    1
    19    11    15   ar
    20    11    16   ar
    21    12    28    1
    22    12    29    1
    23    12    30    1
    24    13    31    1
    25    13    32    1
    26    13    33    1
    27    14    15   ar
    28    14    34    1
    29    16    18   ar
    30    17    18   ar
    31    17    19    1
    32    18    35    1
    33    19    20   ar
    34    19    21   ar
    35    20    23   ar
    36    20    36    1
    37    21    24   ar
    38    21    37    1
    39    22    38    1
    40    22    39    1
    41    22    40    1
    42    23    25   ar
    43    23    41    1
    44    24    25   ar
    45    24    42    1
    46    25    43    1
