@<TRIPOS>MOLECULE
IMPHY001759
 37 38 0 0 0
SMALL
GASTEIGER

@<TRIPOS>ATOM
      1 O           6.0010   -0.0950    0.0000 O.3     1  UNL1       -0.4560
      2 O           6.0010   -4.0950    0.0000 O.3     1  UNL1       -0.5059
      3 O           2.5369    1.9050    0.0000 O.3     1  UNL1       -0.5059
      4 O           8.5991   -2.5950    0.0000 O.3     1  UNL1       -0.4644
      5 O           5.1350    3.4050    0.0000 O.3     1  UNL1       -0.4644
      6 O           7.7331   -4.0950    0.0000 O.2     1  UNL1       -0.2448
      7 O           3.4030    3.4050    0.0000 O.2     1  UNL1       -0.2448
      8 C           5.1350    0.4050    0.0000 C.ar    1  UNL1        0.1294
      9 C           6.0010   -1.0950    0.0000 C.ar    1  UNL1        0.1294
     10 C           4.2690    1.9050    0.0000 C.ar    1  UNL1        0.1037
     11 C           6.8671   -2.5950    0.0000 C.ar    1  UNL1        0.1037
     12 C           5.1350    1.4050    0.0000 C.ar    1  UNL1       -0.0018
     13 C           6.8671   -1.5950    0.0000 C.ar    1  UNL1       -0.0018
     14 C           5.1350   -1.5950    0.0000 C.ar    1  UNL1       -0.0158
     15 C           4.2690   -0.0950    0.0000 C.ar    1  UNL1       -0.0158
     16 C           3.4030    1.4050    0.0000 C.ar    1  UNL1        0.1310
     17 C           6.0010   -3.0950    0.0000 C.ar    1  UNL1        0.1310
     18 C           5.1350   -2.5950    0.0000 C.ar    1  UNL1       -0.0159
     19 C           3.4030    0.4050    0.0000 C.ar    1  UNL1       -0.0159
     20 C           4.2690    2.9050    0.0000 C.2     1  UNL1        0.3426
     21 C           7.7331   -3.0950    0.0000 C.2     1  UNL1        0.3426
     22 C           5.1350    4.4050    0.0000 C.3     1  UNL1        0.0820
     23 C           9.4651   -3.0950    0.0000 C.3     1  UNL1        0.0820
     24 H           5.6720    1.7150    0.0000 H       1  UNL1        0.0664
     25 H           7.4040   -1.2850    0.0000 H       1  UNL1        0.0664
     26 H           4.2690   -0.7150    0.0000 H       1  UNL1        0.0655
     27 H           4.5981   -1.2850    0.0000 H       1  UNL1        0.0655
     28 H           2.8660    0.0950    0.0000 H       1  UNL1        0.0655
     29 H           4.5981   -2.9050    0.0000 H       1  UNL1        0.0655
     30 H           5.4641   -4.4050    0.0000 H       1  UNL1        0.2922
     31 H           2.0000    1.5950    0.0000 H       1  UNL1        0.2922
     32 H           5.7550    4.4050    0.0000 H       1  UNL1        0.0661
     33 H           9.1551   -3.6319    0.0000 H       1  UNL1        0.0661
     34 H          10.0021   -3.4050    0.0000 H       1  UNL1        0.0661
     35 H           9.7751   -2.5581    0.0000 H       1  UNL1        0.0661
     36 H           5.1350    5.0250    0.0000 H       1  UNL1        0.0661
     37 H           4.5150    4.4050    0.0000 H       1  UNL1        0.0661
@<TRIPOS>BOND
     1     1     8    1
     2     1     9    1
     3     2    17    1
     4     2    30    1
     5     3    16    1
     6     3    31    1
     7     4    21    1
     8     4    23    1
     9     5    20    1
    10     5    22    1
    11     6    21    2
    12     7    20    2
    13     8    12   ar
    14     8    15   ar
    15     9    13   ar
    16     9    14   ar
    17    10    12   ar
    18    10    16   ar
    19    10    20    1
    20    11    13   ar
    21    11    17   ar
    22    11    21    1
    23    12    24    1
    24    13    25    1
    25    14    18   ar
    26    14    27    1
    27    15    19   ar
    28    15    26    1
    29    16    19   ar
    30    17    18   ar
    31    18    29    1
    32    19    28    1
    33    22    32    1
    34    22    36    1
    35    22    37    1
    36    23    33    1
    37    23    34    1
    38    23    35    1
