@<TRIPOS>MOLECULE
IMPHY004073
 34 36 0 0 0
SMALL
GASTEIGER

@<TRIPOS>ATOM
      1 O           5.6270    2.1688    0.0000 O.3     1  UNL1       -0.4533
      2 O           2.0000   -1.0039    0.0000 O.2     1  UNL1       -0.2876
      3 O           7.3669    2.5270    0.0000 O.2     1  UNL1       -0.2453
      4 C           4.5772   -0.8500    0.0000 C.3     1  UNL1        0.0127
      5 C           5.4782   -0.4161    0.0000 C.3     1  UNL1       -0.0169
      6 C           5.0772    1.3406    0.0000 C.3     1  UNL1        0.1289
      7 C           5.7007    0.5588    0.0000 C.2     1  UNL1       -0.0187
      8 C           3.6763   -0.4161    0.0000 C.2     1  UNL1        0.0057
      9 C           4.0772    1.3406    0.0000 C.3     1  UNL1        0.0099
     10 C           3.4538    0.5588    0.0000 C.2     1  UNL1       -0.0614
     11 C           4.4413   -1.8347    0.0000 C.2     1  UNL1       -0.0612
     12 C           6.6305    0.9105    0.0000 C.2     1  UNL1        0.0363
     13 C           2.9912   -1.1364    0.0000 C.2     1  UNL1        0.1826
     14 C           3.4630   -2.0114    0.0000 C.2     1  UNL1       -0.0151
     15 C           6.5851    1.9036    0.0000 C.2     1  UNL1        0.3355
     16 C           2.4788    0.7813    0.0000 C.3     1  UNL1       -0.0430
     17 C           5.1629   -2.5270    0.0000 C.3     1  UNL1       -0.0428
     18 C           7.4660    0.3611    0.0000 C.3     1  UNL1       -0.0329
     19 H           5.2643   -1.3505    0.0000 H       1  UNL1        0.0398
     20 H           5.6162   -1.0206    0.0000 H       1  UNL1        0.0320
     21 H           6.0982   -0.4161    0.0000 H       1  UNL1        0.0320
     22 H           4.6754    2.0897    0.0000 H       1  UNL1        0.0785
     23 H           4.2152    1.9451    0.0000 H       1  UNL1        0.0349
     24 H           3.5186    1.6096    0.0000 H       1  UNL1        0.0349
     25 H           3.1940   -2.5700    0.0000 H       1  UNL1        0.0655
     26 H           2.6168    1.3858    0.0000 H       1  UNL1        0.0275
     27 H           1.8744    0.9193    0.0000 H       1  UNL1        0.0275
     28 H           2.3409    0.1769    0.0000 H       1  UNL1        0.0275
     29 H           4.7336   -2.9744    0.0000 H       1  UNL1        0.0275
     30 H           5.6102   -2.9563    0.0000 H       1  UNL1        0.0275
     31 H           5.5921   -2.0797    0.0000 H       1  UNL1        0.0275
     32 H           7.1254   -0.1570    0.0000 H       1  UNL1        0.0280
     33 H           7.9841    0.0204    0.0000 H       1  UNL1        0.0280
     34 H           7.8067    0.8791    0.0000 H       1  UNL1        0.0280
@<TRIPOS>BOND
     1     1     6    1
     2     1    15    1
     3     2    13    2
     4     3    15    2
     5     4     5    1
     6     4     8    1
     7     4    11    1
     8     4    19    1
     9     5     7    1
    10     5    20    1
    11     5    21    1
    12     6     7    1
    13     6     9    1
    14     6    22    1
    15     7    12    2
    16     8    10    2
    17     8    13    1
    18     9    10    1
    19     9    23    1
    20     9    24    1
    21    10    16    1
    22    11    14    2
    23    11    17    1
    24    12    15    1
    25    12    18    1
    26    13    14    1
    27    14    25    1
    28    16    26    1
    29    16    27    1
    30    16    28    1
    31    17    29    1
    32    17    30    1
    33    17    31    1
    34    18    32    1
    35    18    33    1
    36    18    34    1
