@<TRIPOS>MOLECULE
IMPHY012242
 17 16 0 0 0
SMALL
GASTEIGER

@<TRIPOS>ATOM
      1 S           2.8660   -0.0600    0.0000 S.3     1  UNL1       -0.1641
      2 N           6.3301   -0.0600    0.0000 N.3     1  UNL1       -0.3300
      3 C           4.5981   -0.0600    0.0000 C.3     1  UNL1       -0.0316
      4 C           3.7320   -0.5600    0.0000 C.3     1  UNL1       -0.0054
      5 C           5.4641   -0.5600    0.0000 C.3     1  UNL1       -0.0062
      6 C           2.0000   -0.5600    0.0000 C.3     1  UNL1       -0.0181
      7 H           4.9966    0.4149    0.0000 H       1  UNL1        0.0285
      8 H           4.1996    0.4149    0.0000 H       1  UNL1        0.0285
      9 H           3.3335   -1.0350    0.0000 H       1  UNL1        0.0377
     10 H           4.1306   -1.0350    0.0000 H       1  UNL1        0.0377
     11 H           5.0656   -1.0350    0.0000 H       1  UNL1        0.0422
     12 H           5.8626   -1.0350    0.0000 H       1  UNL1        0.0422
     13 H           6.8671   -0.3700    0.0000 H       1  UNL1        0.1182
     14 H           6.3301    0.5600    0.0000 H       1  UNL1        0.1182
     15 H           1.6900   -0.0231    0.0000 H       1  UNL1        0.0340
     16 H           1.4631   -0.8700    0.0000 H       1  UNL1        0.0340
     17 H           2.3100   -1.0969    0.0000 H       1  UNL1        0.0340
@<TRIPOS>BOND
     1     1     4    1
     2     1     6    1
     3     2     5    1
     4     2    13    1
     5     2    14    1
     6     3     4    1
     7     3     5    1
     8     3     7    1
     9     3     8    1
    10     4     9    1
    11     4    10    1
    12     5    11    1
    13     5    12    1
    14     6    15    1
    15     6    16    1
    16     6    17    1
