@<TRIPOS>MOLECULE
IMPHY011592
 110 112 0 0 0
SMALL
GASTEIGER

@<TRIPOS>ATOM
      1 O          16.1466   -0.2421    0.0000 O.3     1  UNL1       -0.3683
      2 O          18.2157   -0.9144    0.0000 O.3     1  UNL1       -0.3683
      3 O          14.1786   -0.9415    0.0000 O.3     1  UNL1       -0.3892
      4 O          19.3967   -2.6370    0.0000 O.3     1  UNL1       -0.3892
      5 O           5.3803    3.4845    0.0000 O.3     1  UNL1       -0.3915
      6 O           2.0000    3.5246    0.0000 O.3     1  UNL1       -0.4542
      7 O           2.0933    1.7450    0.0000 O.2     1  UNL1       -0.2453
      8 C          16.9556    0.3457    0.0000 C.3     1  UNL1        0.0853
      9 C          17.9066    0.0366    0.0000 C.3     1  UNL1        0.0853
     10 C          16.6466    1.2967    0.0000 C.3     1  UNL1       -0.0217
     11 C          18.7157    0.6244    0.0000 C.3     1  UNL1       -0.0217
     12 C          15.3376    0.3457    0.0000 C.3     1  UNL1        0.0850
     13 C          19.2157   -0.9144    0.0000 C.3     1  UNL1        0.0850
     14 C          15.6466    1.2967    0.0000 C.3     1  UNL1       -0.0217
     15 C          19.5247    0.0366    0.0000 C.3     1  UNL1       -0.0217
     16 C          14.3865    0.0366    0.0000 C.3     1  UNL1        0.0813
     17 C          19.8034   -1.7234    0.0000 C.3     1  UNL1        0.0813
     18 C          13.6434    0.7058    0.0000 C.3     1  UNL1       -0.0244
     19 C          20.7980   -1.6189    0.0000 C.3     1  UNL1       -0.0244
     20 C          12.6923    0.3968    0.0000 C.3     1  UNL1       -0.0506
     21 C          21.3858   -2.4279    0.0000 C.3     1  UNL1       -0.0506
     22 C          11.9492    1.0659    0.0000 C.3     1  UNL1       -0.0530
     23 C          22.3803   -2.3234    0.0000 C.3     1  UNL1       -0.0530
     24 C          10.9981    0.7569    0.0000 C.3     1  UNL1       -0.0531
     25 C          22.9681   -3.1324    0.0000 C.3     1  UNL1       -0.0531
     26 C          10.2550    1.4260    0.0000 C.3     1  UNL1       -0.0531
     27 C          23.9626   -3.0279    0.0000 C.3     1  UNL1       -0.0531
     28 C           9.3039    1.1170    0.0000 C.3     1  UNL1       -0.0531
     29 C          24.5504   -3.8369    0.0000 C.3     1  UNL1       -0.0531
     30 C           8.5608    1.7861    0.0000 C.3     1  UNL1       -0.0531
     31 C           7.6097    1.4771    0.0000 C.3     1  UNL1       -0.0530
     32 C          25.5449   -3.7324    0.0000 C.3     1  UNL1       -0.0531
     33 C           6.8666    2.1462    0.0000 C.3     1  UNL1       -0.0507
     34 C          26.1327   -4.5414    0.0000 C.3     1  UNL1       -0.0533
     35 C           5.9155    1.8372    0.0000 C.3     1  UNL1       -0.0265
     36 C           5.1724    2.5064    0.0000 C.3     1  UNL1        0.0594
     37 C          27.1272   -4.4368    0.0000 C.3     1  UNL1       -0.0559
     38 C           4.2213    2.1973    0.0000 C.3     1  UNL1        0.0050
     39 C           3.4782    2.8665    0.0000 C.2     1  UNL1        0.0385
     40 C          27.7150   -5.2459    0.0000 C.3     1  UNL1       -0.0653
     41 C           3.5827    3.8610    0.0000 C.2     1  UNL1       -0.0342
     42 C           2.6691    4.2677    0.0000 C.3     1  UNL1        0.1195
     43 C           2.5000    2.6586    0.0000 C.2     1  UNL1        0.3356
     44 C           2.4612    5.2459    0.0000 C.3     1  UNL1       -0.0240
     45 H          17.0886   -0.4939    0.0000 H       1  UNL1        0.0622
     46 H          17.3056   -0.5644    0.0000 H       1  UNL1        0.0622
     47 H          17.2530    1.4256    0.0000 H       1  UNL1        0.0292
     48 H          16.5818    1.9133    0.0000 H       1  UNL1        0.0292
     49 H          19.1305    1.0852    0.0000 H       1  UNL1        0.0292
     50 H          18.3008    1.0852    0.0000 H       1  UNL1        0.0292
     51 H          15.2046   -0.4939    0.0000 H       1  UNL1        0.0622
     52 H          18.8298   -1.6718    0.0000 H       1  UNL1        0.0622
     53 H          15.7114    1.9133    0.0000 H       1  UNL1        0.0292
     54 H          15.0401    1.4256    0.0000 H       1  UNL1        0.0292
     55 H          20.0911   -0.2155    0.0000 H       1  UNL1        0.0292
     56 H          19.8347    0.5736    0.0000 H       1  UNL1        0.0292
     57 H          13.7968   -0.1549    0.0000 H       1  UNL1        0.0619
     58 H          20.1679   -2.2250    0.0000 H       1  UNL1        0.0619
     59 H          14.1319    1.0875    0.0000 H       1  UNL1        0.0291
     60 H          13.3523    1.2532    0.0000 H       1  UNL1        0.0291
     61 H          21.3552   -1.3471    0.0000 H       1  UNL1        0.0291
     62 H          20.6271   -1.0229    0.0000 H       1  UNL1        0.0291
     63 H          12.2037    0.0151    0.0000 H       1  UNL1        0.0266
     64 H          12.9834   -0.1507    0.0000 H       1  UNL1        0.0266
     65 H          20.8285   -2.6997    0.0000 H       1  UNL1        0.0266
     66 H          21.5567   -3.0239    0.0000 H       1  UNL1        0.0266
     67 H          13.5889   -1.1331    0.0000 H       1  UNL1        0.2099
     68 H          19.7611   -3.1386    0.0000 H       1  UNL1        0.2099
     69 H          12.4377    1.4476    0.0000 H       1  UNL1        0.0265
     70 H          11.6581    1.6133    0.0000 H       1  UNL1        0.0265
     71 H          22.9375   -2.0516    0.0000 H       1  UNL1        0.0265
     72 H          22.2094   -1.7274    0.0000 H       1  UNL1        0.0265
     73 H          10.5095    0.3752    0.0000 H       1  UNL1        0.0265
     74 H          11.2892    0.2094    0.0000 H       1  UNL1        0.0265
     75 H          22.4108   -3.4042    0.0000 H       1  UNL1        0.0265
     76 H          23.1390   -3.7284    0.0000 H       1  UNL1        0.0265
     77 H          10.7435    1.8077    0.0000 H       1  UNL1        0.0265
     78 H           9.9639    1.9734    0.0000 H       1  UNL1        0.0265
     79 H          24.5198   -2.7561    0.0000 H       1  UNL1        0.0265
     80 H          23.7917   -2.4319    0.0000 H       1  UNL1        0.0265
     81 H           8.8153    0.7353    0.0000 H       1  UNL1        0.0265
     82 H           9.5950    0.5696    0.0000 H       1  UNL1        0.0265
     83 H          23.9931   -4.1087    0.0000 H       1  UNL1        0.0265
     84 H          24.7213   -4.4329    0.0000 H       1  UNL1        0.0265
     85 H           9.0493    2.1678    0.0000 H       1  UNL1        0.0265
     86 H           8.2697    2.3335    0.0000 H       1  UNL1        0.0265
     87 H           7.1211    1.0954    0.0000 H       1  UNL1        0.0265
     88 H           7.9008    0.9297    0.0000 H       1  UNL1        0.0265
     89 H          26.1021   -3.4606    0.0000 H       1  UNL1        0.0265
     90 H          25.3740   -3.1364    0.0000 H       1  UNL1        0.0265
     91 H           7.3551    2.5279    0.0000 H       1  UNL1        0.0266
     92 H           6.5755    2.6937    0.0000 H       1  UNL1        0.0266
     93 H          25.5754   -4.8132    0.0000 H       1  UNL1        0.0265
     94 H          26.3036   -5.1374    0.0000 H       1  UNL1        0.0265
     95 H           5.4269    1.4555    0.0000 H       1  UNL1        0.0290
     96 H           6.2066    1.2898    0.0000 H       1  UNL1        0.0290
     97 H           5.7620    2.6979    0.0000 H       1  UNL1        0.0596
     98 H          27.6845   -4.1651    0.0000 H       1  UNL1        0.0263
     99 H          26.9563   -3.8409    0.0000 H       1  UNL1        0.0263
    100 H           3.7327    1.8156    0.0000 H       1  UNL1        0.0340
    101 H           4.5124    1.6499    0.0000 H       1  UNL1        0.0340
    102 H          27.2134   -5.6103    0.0000 H       1  UNL1        0.0230
    103 H          28.0794   -5.7475    0.0000 H       1  UNL1        0.0230
    104 H          28.2166   -4.8814    0.0000 H       1  UNL1        0.0230
    105 H           5.9699    3.6761    0.0000 H       1  UNL1        0.2098
    106 H           4.1196    4.1710    0.0000 H       1  UNL1        0.0613
    107 H           2.0703    4.4282    0.0000 H       1  UNL1        0.0777
    108 H           3.0677    5.3748    0.0000 H       1  UNL1        0.0268
    109 H           2.3323    5.8523    0.0000 H       1  UNL1        0.0268
    110 H           1.8548    5.1170    0.0000 H       1  UNL1        0.0268
@<TRIPOS>BOND
     1     1     8    1
     2     1    12    1
     3     2     9    1
     4     2    13    1
     5    16     3    1
     6     3    67    1
     7    17     4    1
     8     4    68    1
     9    36     5    1
    10     5   105    1
    11     6    42    1
    12     6    43    1
    13     7    43    2
    14     8     9    1
    15     8    10    1
    16     8    45    1
    17     9    11    1
    18     9    46    1
    19    10    14    1
    20    10    47    1
    21    10    48    1
    22    11    15    1
    23    11    49    1
    24    11    50    1
    25    12    14    1
    26    12    16    1
    27    12    51    1
    28    13    15    1
    29    13    17    1
    30    13    52    1
    31    14    53    1
    32    14    54    1
    33    15    55    1
    34    15    56    1
    35    16    18    1
    36    16    57    1
    37    17    19    1
    38    17    58    1
    39    18    20    1
    40    18    59    1
    41    18    60    1
    42    19    21    1
    43    19    61    1
    44    19    62    1
    45    20    22    1
    46    20    63    1
    47    20    64    1
    48    21    23    1
    49    21    65    1
    50    21    66    1
    51    22    24    1
    52    22    69    1
    53    22    70    1
    54    23    25    1
    55    23    71    1
    56    23    72    1
    57    24    26    1
    58    24    73    1
    59    24    74    1
    60    25    27    1
    61    25    75    1
    62    25    76    1
    63    26    28    1
    64    26    77    1
    65    26    78    1
    66    27    29    1
    67    27    79    1
    68    27    80    1
    69    28    30    1
    70    28    81    1
    71    28    82    1
    72    29    32    1
    73    29    83    1
    74    29    84    1
    75    30    31    1
    76    30    85    1
    77    30    86    1
    78    31    33    1
    79    31    87    1
    80    31    88    1
    81    32    34    1
    82    32    89    1
    83    32    90    1
    84    33    35    1
    85    33    91    1
    86    33    92    1
    87    34    37    1
    88    34    93    1
    89    34    94    1
    90    35    36    1
    91    35    95    1
    92    35    96    1
    93    36    38    1
    94    36    97    1
    95    37    40    1
    96    37    98    1
    97    37    99    1
    98    38    39    1
    99    38   100    1
   100    38   101    1
   101    39    41    2
   102    39    43    1
   103    40   102    1
   104    40   103    1
   105    40   104    1
   106    41    42    1
   107    41   106    1
   108    42    44    1
   109    42   107    1
   110    44   108    1
   111    44   109    1
   112    44   110    1
