@<TRIPOS>MOLECULE
IMPHY011359
 29 29 0 0 0
SMALL
GASTEIGER

@<TRIPOS>ATOM
      1 O           4.2690   -2.0000    0.0000 O.3     1  UNL1       -0.4946
      2 O           6.0010    1.0000    0.0000 O.3     1  UNL1       -0.4942
      3 O           2.5369    1.0000    0.0000 O.3     1  UNL1       -0.5056
      4 O           3.4030    2.5000    0.0000 O.2     1  UNL1       -0.2921
      5 C           3.4030   -0.5000    0.0000 C.ar    1  UNL1        0.0335
      6 C           4.2690    1.0000    0.0000 C.ar    1  UNL1        0.1005
      7 C           3.4030    0.5000    0.0000 C.ar    1  UNL1        0.1372
      8 C           4.2690   -1.0000    0.0000 C.ar    1  UNL1        0.1300
      9 C           5.1350    0.5000    0.0000 C.ar    1  UNL1        0.1375
     10 C           5.1350   -0.5000    0.0000 C.ar    1  UNL1        0.0230
     11 C           2.5369   -1.0000    0.0000 C.3     1  UNL1       -0.0327
     12 C           4.2690    2.0000    0.0000 C.2     1  UNL1        0.1671
     13 C           5.1350    2.5000    0.0000 C.3     1  UNL1       -0.0012
     14 C           5.1350   -2.5000    0.0000 C.3     1  UNL1        0.0788
     15 C           6.8671    0.5000    0.0000 C.3     1  UNL1        0.0788
     16 H           5.6720   -0.8100    0.0000 H       1  UNL1        0.0691
     17 H           2.2269   -0.4631    0.0000 H       1  UNL1        0.0280
     18 H           2.0000   -1.3100    0.0000 H       1  UNL1        0.0280
     19 H           2.8469   -1.5369    0.0000 H       1  UNL1        0.0280
     20 H           5.4450    1.9631    0.0000 H       1  UNL1        0.0309
     21 H           5.6720    2.8100    0.0000 H       1  UNL1        0.0309
     22 H           4.8250    3.0369    0.0000 H       1  UNL1        0.0309
     23 H           2.0000    0.6900    0.0000 H       1  UNL1        0.2922
     24 H           4.8250   -3.0369    0.0000 H       1  UNL1        0.0660
     25 H           5.6720   -2.8100    0.0000 H       1  UNL1        0.0660
     26 H           5.4450   -1.9631    0.0000 H       1  UNL1        0.0660
     27 H           6.5571   -0.0369    0.0000 H       1  UNL1        0.0660
     28 H           7.4040    0.1900    0.0000 H       1  UNL1        0.0660
     29 H           7.1771    1.0369    0.0000 H       1  UNL1        0.0660
@<TRIPOS>BOND
     1     1     8    1
     2     1    14    1
     3     2     9    1
     4     2    15    1
     5     3     7    1
     6     3    23    1
     7     4    12    2
     8     5     7   ar
     9     5     8   ar
    10     5    11    1
    11     6     7   ar
    12     6     9   ar
    13     6    12    1
    14     8    10   ar
    15     9    10   ar
    16    10    16    1
    17    11    17    1
    18    11    18    1
    19    11    19    1
    20    12    13    1
    21    13    20    1
    22    13    21    1
    23    13    22    1
    24    14    24    1
    25    14    25    1
    26    14    26    1
    27    15    27    1
    28    15    28    1
    29    15    29    1
