@<TRIPOS>MOLECULE
IMPHY014576
 78 81 0 0 0
SMALL
GASTEIGER

@<TRIPOS>ATOM
      1 O           6.8671   -2.5197    0.0000 O.3     1  UNL1       -0.3093
      2 O           7.7331   -1.0197    0.0000 O.2     1  UNL1       -0.4699
      3 O           5.1350   -2.5197    0.0000 O.3     1  UNL1       -0.3404
      4 O           6.8671   -4.5197    0.0000 O.3     1  UNL1       -0.3841
      5 O           5.1350   -5.5197    0.0000 O.3     1  UNL1       -0.3864
      6 O           3.4030   -4.5197    0.0000 O.3     1  UNL1       -0.3865
      7 O           8.4947    1.0727    0.0000 O.3     1  UNL1       -0.4646
      8 O           3.8081   -0.6329    0.0000 O.2     1  UNL1       -0.2759
      9 O           2.5369   -3.0197    0.0000 O.3     1  UNL1       -0.3924
     10 O           5.8954    5.0661    0.0000 O.3     1  UNL1       -0.4914
     11 O           7.1678    2.1861    0.0000 O.2     1  UNL1       -0.2452
     12 O           7.2120    3.4970    0.0000 O.3     1  UNL1       -0.5033
     13 N           3.5074    1.0727    0.0000 N.am    1  UNL1       -0.2943
     14 C           6.0010   -0.0197    0.0000 C.3     1  UNL1        0.0077
     15 C           5.1350    0.4803    0.0000 C.3     1  UNL1       -0.0222
     16 C           4.4922    1.2464    0.0000 C.3     1  UNL1        0.0521
     17 C           6.0010   -1.0197    0.0000 C.3     1  UNL1        0.0467
     18 C           6.8671   -1.5197    0.0000 C.3     1  UNL1        0.2102
     19 C           4.8342    2.1861    0.0000 C.ar    1  UNL1       -0.0201
     20 C           6.8671    0.4803    0.0000 C.2     1  UNL1        0.0746
     21 C           6.0010   -3.0197    0.0000 C.3     1  UNL1        0.1918
     22 C           2.8646    1.8388    0.0000 C.3     1  UNL1        0.0193
     23 C           6.0010   -4.0197    0.0000 C.3     1  UNL1        0.1342
     24 C           4.1915    2.9521    0.0000 C.ar    1  UNL1       -0.0373
     25 C           3.2066    2.7785    0.0000 C.3     1  UNL1       -0.0114
     26 C           5.1350   -4.5197    0.0000 C.3     1  UNL1        0.1141
     27 C           4.2690   -4.0197    0.0000 C.3     1  UNL1        0.1119
     28 C           4.2690   -3.0197    0.0000 C.3     1  UNL1        0.1130
     29 C           5.1350   -1.5197    0.0000 C.2     1  UNL1       -0.0816
     30 C           7.7331   -0.0197    0.0000 C.2     1  UNL1        0.0981
     31 C           5.8627    2.3511    0.0000 C.ar    1  UNL1       -0.0113
     32 C           3.1654    0.1330    0.0000 C.2     1  UNL1        0.2130
     33 C           4.5326    3.9363    0.0000 C.ar    1  UNL1       -0.0128
     34 C           7.5098    1.2464    0.0000 C.2     1  UNL1        0.3381
     35 C           3.4030   -2.5197    0.0000 C.3     1  UNL1        0.0730
     36 C           6.2265    3.3272    0.0000 C.ar    1  UNL1        0.1588
     37 C           5.5570    4.1251    0.0000 C.ar    1  UNL1        0.1615
     38 C           4.2690   -1.0197    0.0000 C.2     1  UNL1       -0.1022
     39 C           2.1806   -0.0406    0.0000 C.3     1  UNL1        0.0124
     40 C           9.1374    1.8388    0.0000 C.3     1  UNL1        0.0820
     41 C           5.2496    5.8297    0.0000 C.3     1  UNL1        0.0790
     42 H           6.0010    0.6003    0.0000 H       1  UNL1        0.0360
     43 H           4.5411    0.3025    0.0000 H       1  UNL1        0.0292
     44 H           5.5335    0.9553    0.0000 H       1  UNL1        0.0292
     45 H           4.2802    0.6638    0.0000 H       1  UNL1        0.0551
     46 H           5.4641   -0.7097    0.0000 H       1  UNL1        0.0410
     47 H           6.3301   -1.8297    0.0000 H       1  UNL1        0.1062
     48 H           6.5380   -3.3297    0.0000 H       1  UNL1        0.0939
     49 H           2.3277    2.1488    0.0000 H       1  UNL1        0.0468
     50 H           2.4661    1.3638    0.0000 H       1  UNL1        0.0468
     51 H           6.0010   -4.6397    0.0000 H       1  UNL1        0.0671
     52 H           3.2066    3.3985    0.0000 H       1  UNL1        0.0328
     53 H           2.5961    2.8861    0.0000 H       1  UNL1        0.0328
     54 H           4.5981   -4.8297    0.0000 H       1  UNL1        0.0648
     55 H           4.2690   -4.6397    0.0000 H       1  UNL1        0.0647
     56 H           4.2690   -2.3997    0.0000 H       1  UNL1        0.0647
     57 H           5.1350   -2.1397    0.0000 H       1  UNL1        0.0571
     58 H           8.2700    0.2903    0.0000 H       1  UNL1        0.1029
     59 H           6.2557    1.8716    0.0000 H       1  UNL1        0.0659
     60 H           4.1286    4.4066    0.0000 H       1  UNL1        0.0658
     61 H           3.8015   -2.0447    0.0000 H       1  UNL1        0.0584
     62 H           3.0044   -2.0447    0.0000 H       1  UNL1        0.0584
     63 H           7.4040   -4.2097    0.0000 H       1  UNL1        0.2101
     64 H           4.2690   -0.3997    0.0000 H       1  UNL1        0.0532
     65 H           3.7320   -1.3297    0.0000 H       1  UNL1        0.0532
     66 H           5.6720   -5.8297    0.0000 H       1  UNL1        0.2100
     67 H           3.4030   -5.1397    0.0000 H       1  UNL1        0.2100
     68 H           2.0729    0.5700    0.0000 H       1  UNL1        0.0323
     69 H           1.5700   -0.1483    0.0000 H       1  UNL1        0.0323
     70 H           2.2882   -0.6512    0.0000 H       1  UNL1        0.0323
     71 H           2.0000   -2.7097    0.0000 H       1  UNL1        0.2095
     72 H           7.4263    4.0788    0.0000 H       1  UNL1        0.2923
     73 H           9.6124    1.4402    0.0000 H       1  UNL1        0.0661
     74 H           9.5360    2.3137    0.0000 H       1  UNL1        0.0661
     75 H           8.6625    2.2373    0.0000 H       1  UNL1        0.0661
     76 H           5.7230    6.2300    0.0000 H       1  UNL1        0.0660
     77 H           4.8493    6.3031    0.0000 H       1  UNL1        0.0660
     78 H           4.7762    5.4293    0.0000 H       1  UNL1        0.0660
@<TRIPOS>BOND
     1    18     1    1
     2    21     1    1
     3     2    18    1
     4     2    30    1
     5     3    21    1
     6     3    28    1
     7    23     4    1
     8     4    63    1
     9    26     5    1
    10     5    66    1
    11    27     6    1
    12     6    67    1
    13     7    34    1
    14     7    40    1
    15     8    32    2
    16     9    35    1
    17     9    71    1
    18    10    37    1
    19    10    41    1
    20    11    34    2
    21    12    36    1
    22    12    72    1
    23    13    16    1
    24    13    22    1
    25    13    32   am
    26    14    15    1
    27    14    17    1
    28    14    20    1
    29    14    42    1
    30    16    15    1
    31    15    43    1
    32    15    44    1
    33    16    19    1
    34    16    45    1
    35    17    18    1
    36    17    29    1
    37    17    46    1
    38    18    47    1
    39    19    24   ar
    40    19    31   ar
    41    20    30    2
    42    20    34    1
    43    21    23    1
    44    21    48    1
    45    22    25    1
    46    22    49    1
    47    22    50    1
    48    23    26    1
    49    23    51    1
    50    24    25    1
    51    24    33   ar
    52    25    52    1
    53    25    53    1
    54    26    27    1
    55    26    54    1
    56    27    28    1
    57    27    55    1
    58    28    35    1
    59    28    56    1
    60    29    38    2
    61    29    57    1
    62    30    58    1
    63    31    36   ar
    64    31    59    1
    65    32    39    1
    66    33    37   ar
    67    33    60    1
    68    35    61    1
    69    35    62    1
    70    36    37   ar
    71    38    64    1
    72    38    65    1
    73    39    68    1
    74    39    69    1
    75    39    70    1
    76    40    73    1
    77    40    74    1
    78    40    75    1
    79    41    76    1
    80    41    77    1
    81    41    78    1
