@<TRIPOS>MOLECULE
IMPHY007894
 41 43 0 0 0
SMALL
GASTEIGER

@<TRIPOS>ATOM
      1 O           5.5301   -1.9879    0.0000 O.2     1  UNL1       -0.4618
      2 O           8.1282   -1.4879    0.0000 O.3     1  UNL1       -0.4944
      3 O           5.5301    1.0121    0.0000 O.2     1  UNL1       -0.2863
      4 O           8.1282    2.5121    0.0000 O.3     1  UNL1       -0.4914
      5 O           3.7817    1.0467    0.0000 O.3     1  UNL1       -0.5058
      6 O           2.0000   -2.0121    0.0000 O.3     1  UNL1       -0.4949
      7 O           9.8602    1.5121    0.0000 O.3     1  UNL1       -0.5032
      8 C           6.3961   -0.4879    0.0000 C.ar    1  UNL1        0.0680
      9 C           4.6641   -0.4879    0.0000 C.ar    1  UNL1        0.1060
     10 C           7.2622    0.0121    0.0000 C.ar    1  UNL1        0.0341
     11 C           5.5301    0.0121    0.0000 C.ar    1  UNL1        0.2038
     12 C           4.6641   -1.4879    0.0000 C.ar    1  UNL1        0.1454
     13 C           8.1282   -0.4879    0.0000 C.ar    1  UNL1        0.1317
     14 C           3.7702    0.0467    0.0000 C.ar    1  UNL1        0.1347
     15 C           6.3961   -1.4879    0.0000 C.ar    1  UNL1        0.1040
     16 C           7.2622    1.0121    0.0000 C.ar    1  UNL1       -0.0049
     17 C           3.7702   -2.0226    0.0000 C.ar    1  UNL1        0.0233
     18 C           8.1282    1.5121    0.0000 C.ar    1  UNL1        0.1621
     19 C           2.8641   -1.5087    0.0000 C.ar    1  UNL1        0.1271
     20 C           2.8641   -0.4671    0.0000 C.ar    1  UNL1        0.0225
     21 C           8.9942    0.0121    0.0000 C.ar    1  UNL1        0.0258
     22 C           8.9942    1.0121    0.0000 C.ar    1  UNL1        0.1620
     23 C           8.9942   -1.9879    0.0000 C.3     1  UNL1        0.0788
     24 C           8.9942    3.0121    0.0000 C.3     1  UNL1        0.0790
     25 C           2.0038   -3.0121    0.0000 C.3     1  UNL1        0.0788
     26 H           6.9331   -1.7979    0.0000 H       1  UNL1        0.1037
     27 H           6.7252    1.3221    0.0000 H       1  UNL1        0.0663
     28 H           3.7773   -2.6426    0.0000 H       1  UNL1        0.0691
     29 H           2.3284   -0.1550    0.0000 H       1  UNL1        0.0691
     30 H           9.5312   -0.2979    0.0000 H       1  UNL1        0.0692
     31 H           3.2484    1.3628    0.0000 H       1  UNL1        0.2922
     32 H           8.6842   -2.5249    0.0000 H       1  UNL1        0.0660
     33 H           9.5312   -2.2979    0.0000 H       1  UNL1        0.0660
     34 H           9.3042   -1.4510    0.0000 H       1  UNL1        0.0660
     35 H          10.3972    1.2021    0.0000 H       1  UNL1        0.2923
     36 H           9.3042    2.4751    0.0000 H       1  UNL1        0.0660
     37 H           9.5312    3.3221    0.0000 H       1  UNL1        0.0660
     38 H           8.6842    3.5490    0.0000 H       1  UNL1        0.0660
     39 H           1.3839   -3.0145    0.0000 H       1  UNL1        0.0660
     40 H           2.0062   -3.6321    0.0000 H       1  UNL1        0.0660
     41 H           2.6238   -3.0097    0.0000 H       1  UNL1        0.0660
@<TRIPOS>BOND
     1     1    12   ar
     2     1    15   ar
     3     2    13    1
     4     2    23    1
     5     3    11    2
     6     4    18    1
     7     4    24    1
     8     5    14    1
     9     5    31    1
    10     6    19    1
    11     6    25    1
    12     7    22    1
    13     7    35    1
    14     8    10    1
    15     8    11   ar
    16     8    15   ar
    17     9    11   ar
    18     9    12   ar
    19     9    14   ar
    20    10    13   ar
    21    10    16   ar
    22    12    17   ar
    23    13    21   ar
    24    14    20   ar
    25    15    26    1
    26    16    18   ar
    27    16    27    1
    28    17    19   ar
    29    17    28    1
    30    18    22   ar
    31    19    20   ar
    32    20    29    1
    33    21    22   ar
    34    21    30    1
    35    23    32    1
    36    23    33    1
    37    23    34    1
    38    24    36    1
    39    24    37    1
    40    24    38    1
    41    25    39    1
    42    25    40    1
    43    25    41    1
