@<TRIPOS>MOLECULE
IMPHY013810
 83 87 0 0 0
SMALL
GASTEIGER

@<TRIPOS>ATOM
      1 O           2.5357   -2.6896    0.0000 O.3     1  UNL1       -0.3912
      2 O          11.4608    0.3969    0.0000 O.3     1  UNL1       -0.4802
      3 O          10.6064   -1.1097    0.0000 O.2     1  UNL1       -0.2504
      4 C           7.0628   -1.1372    0.0000 C.3     1  UNL1       -0.0231
      5 C           7.9288   -0.6372    0.0000 C.3     1  UNL1       -0.0233
      6 C           6.1968   -0.6372    0.0000 C.3     1  UNL1       -0.0294
      7 C           7.9288    0.3628    0.0000 C.3     1  UNL1       -0.0310
      8 C           5.2868   -1.1441    0.0000 C.3     1  UNL1       -0.0252
      9 C           8.8228    0.8974    0.0000 C.3     1  UNL1       -0.0189
     10 C           9.7288    0.3836    0.0000 C.3     1  UNL1        0.0709
     11 C           5.2787   -2.1857    0.0000 C.3     1  UNL1       -0.0278
     12 C           8.8228   -1.1719    0.0000 C.3     1  UNL1       -0.0458
     13 C           7.0789   -2.1788    0.0000 C.3     1  UNL1       -0.0466
     14 C           6.1968    0.3628    0.0000 C.3     1  UNL1       -0.0489
     15 C           7.0628    0.8628    0.0000 C.3     1  UNL1       -0.0491
     16 C           9.0329    1.9113    0.0000 C.3     1  UNL1       -0.0346
     17 C           9.7288   -0.6581    0.0000 C.3     1  UNL1       -0.0365
     18 C           6.1808   -2.7065    0.0000 C.3     1  UNL1       -0.0486
     19 C           4.3433   -2.7354    0.0000 C.3     1  UNL1       -0.0056
     20 C           4.3599   -0.5800    0.0000 C.3     1  UNL1       -0.0447
     21 C           7.7056   -1.9033    0.0000 C.3     1  UNL1       -0.0588
     22 C           8.2709   -1.5769    0.0000 C.3     1  UNL1       -0.0588
     23 C          10.4911    1.0843    0.0000 C.3     1  UNL1       -0.0367
     24 C          10.0619    2.0266    0.0000 C.3     1  UNL1       -0.0487
     25 C           5.2945   -0.1441    0.0000 C.3     1  UNL1       -0.0590
     26 C           3.4037   -2.1929    0.0000 C.3     1  UNL1        0.0606
     27 C           3.4120   -1.1080    0.0000 C.3     1  UNL1       -0.0258
     28 C           8.3593    2.6505    0.0000 C.3     1  UNL1       -0.0436
     29 C          10.5987   -0.1097    0.0000 C.2     1  UNL1        0.3112
     30 C           3.8467   -3.6034    0.0000 C.3     1  UNL1       -0.0572
     31 C           4.8466   -3.5995    0.0000 C.3     1  UNL1       -0.0572
     32 C           8.6626    3.6034    0.0000 C.3     1  UNL1       -0.0624
     33 C           7.3824    2.4367    0.0000 C.3     1  UNL1       -0.0624
     34 H           6.9329   -0.2122    0.0000 H       1  UNL1        0.0312
     35 H           7.9223    1.2127    0.0000 H       1  UNL1        0.0309
     36 H           8.1300    1.3900    0.0000 H       1  UNL1        0.0317
     37 H           5.2820   -3.0357    0.0000 H       1  UNL1        0.0312
     38 H           8.4182   -1.6417    0.0000 H       1  UNL1        0.0271
     39 H           9.2164   -1.6509    0.0000 H       1  UNL1        0.0271
     40 H           7.2969   -2.7592    0.0000 H       1  UNL1        0.0271
     41 H           7.6880   -2.0632    0.0000 H       1  UNL1        0.0271
     42 H           5.9847    0.9454    0.0000 H       1  UNL1        0.0268
     43 H           5.5862    0.2551    0.0000 H       1  UNL1        0.0268
     44 H           7.4613    1.3377    0.0000 H       1  UNL1        0.0268
     45 H           6.6643    1.3377    0.0000 H       1  UNL1        0.0268
     46 H           9.2513    2.4916    0.0000 H       1  UNL1        0.0306
     47 H           9.9379   -1.2418    0.0000 H       1  UNL1        0.0276
     48 H          10.3397   -0.5520    0.0000 H       1  UNL1        0.0276
     49 H           5.7835   -3.1825    0.0000 H       1  UNL1        0.0268
     50 H           6.5818   -3.1794    0.0000 H       1  UNL1        0.0268
     51 H           4.7681   -0.1134    0.0000 H       1  UNL1        0.0271
     52 H           3.9700   -0.0980    0.0000 H       1  UNL1        0.0271
     53 H           7.2306   -2.3018    0.0000 H       1  UNL1        0.0235
     54 H           8.1041   -2.3782    0.0000 H       1  UNL1        0.0235
     55 H           8.1805   -1.5048    0.0000 H       1  UNL1        0.0235
     56 H           7.6884   -1.7890    0.0000 H       1  UNL1        0.0235
     57 H           8.4830   -2.1595    0.0000 H       1  UNL1        0.0235
     58 H           8.8535   -1.3648    0.0000 H       1  UNL1        0.0235
     59 H          10.8604    0.5863    0.0000 H       1  UNL1        0.0276
     60 H          11.0252    1.3992    0.0000 H       1  UNL1        0.0276
     61 H          10.6500    2.2229    0.0000 H       1  UNL1        0.0268
     62 H           9.9285    2.6321    0.0000 H       1  UNL1        0.0268
     63 H           5.9145   -0.1489    0.0000 H       1  UNL1        0.0235
     64 H           5.2993    0.4759    0.0000 H       1  UNL1        0.0235
     65 H           4.6745   -0.1393    0.0000 H       1  UNL1        0.0235
     66 H           3.4025   -2.8129    0.0000 H       1  UNL1        0.0599
     67 H           3.2075   -0.5227    0.0000 H       1  UNL1        0.0290
     68 H           2.8004   -1.2093    0.0000 H       1  UNL1        0.0290
     69 H           8.1712    2.0597    0.0000 H       1  UNL1        0.0298
     70 H           3.3085   -3.2954    0.0000 H       1  UNL1        0.0236
     71 H           3.5387   -4.1415    0.0000 H       1  UNL1        0.0236
     72 H           4.3848   -3.9113    0.0000 H       1  UNL1        0.0236
     73 H           4.3109   -3.9116    0.0000 H       1  UNL1        0.0236
     74 H           5.1587   -4.1352    0.0000 H       1  UNL1        0.0236
     75 H           5.3824   -3.2874    0.0000 H       1  UNL1        0.0236
     76 H           9.2534    3.4153    0.0000 H       1  UNL1        0.0232
     77 H           8.8507    4.1941    0.0000 H       1  UNL1        0.0232
     78 H           8.0718    3.7914    0.0000 H       1  UNL1        0.0232
     79 H           7.2499    3.0424    0.0000 H       1  UNL1        0.0232
     80 H           6.7768    2.3042    0.0000 H       1  UNL1        0.0232
     81 H           7.5150    1.8310    0.0000 H       1  UNL1        0.0232
     82 H           2.0000   -2.3775    0.0000 H       1  UNL1        0.2098
     83 H          12.0001    0.0911    0.0000 H       1  UNL1        0.2951
@<TRIPOS>BOND
     1    26     1    1
     2     1    82    1
     3     2    29    1
     4     2    83    1
     5     3    29    2
     6     4     5    1
     7     4     6    1
     8     4    13    1
     9     4    21    1
    10     5     7    1
    11     5    12    1
    12     5    22    1
    13     6     8    1
    14     6    14    1
    15     6    34    1
    16     7     9    1
    17     7    15    1
    18     7    35    1
    19     8    11    1
    20     8    20    1
    21     8    25    1
    22     9    10    1
    23     9    16    1
    24     9    36    1
    25    10    17    1
    26    10    23    1
    27    10    29    1
    28    11    18    1
    29    11    19    1
    30    11    37    1
    31    12    17    1
    32    12    38    1
    33    12    39    1
    34    13    18    1
    35    13    40    1
    36    13    41    1
    37    14    15    1
    38    14    42    1
    39    14    43    1
    40    15    44    1
    41    15    45    1
    42    16    24    1
    43    16    28    1
    44    16    46    1
    45    17    47    1
    46    17    48    1
    47    18    49    1
    48    18    50    1
    49    19    26    1
    50    19    30    1
    51    19    31    1
    52    20    27    1
    53    20    51    1
    54    20    52    1
    55    21    53    1
    56    21    54    1
    57    21    55    1
    58    22    56    1
    59    22    57    1
    60    22    58    1
    61    23    24    1
    62    23    59    1
    63    23    60    1
    64    24    61    1
    65    24    62    1
    66    25    63    1
    67    25    64    1
    68    25    65    1
    69    26    27    1
    70    26    66    1
    71    27    67    1
    72    27    68    1
    73    28    32    1
    74    28    33    1
    75    28    69    1
    76    30    70    1
    77    30    71    1
    78    30    72    1
    79    31    73    1
    80    31    74    1
    81    31    75    1
    82    32    76    1
    83    32    77    1
    84    32    78    1
    85    33    79    1
    86    33    80    1
    87    33    81    1
