@<TRIPOS>MOLECULE
IMPHY000248
 53 57 0 0 0
SMALL
GASTEIGER

@<TRIPOS>ATOM
      1 O           4.0413    2.3837    0.0000 O.3     1  UNL1       -0.4853
      2 O           8.1384   -0.0121    0.0000 O.3     1  UNL1       -0.3888
      3 N           5.2612   -0.9180    0.0000 N.ar    1  UNL1       -0.3538
      4 C           5.8157    1.7289    0.0000 C.3     1  UNL1       -0.0014
      5 C           7.0874    0.9342    0.0000 C.3     1  UNL1       -0.0054
      6 C           6.0745    2.6948    0.0000 C.3     1  UNL1        0.1085
      7 C           5.3379    3.6774    0.0000 C.3     1  UNL1       -0.0058
      8 C           7.8646    1.5636    0.0000 C.3     1  UNL1       -0.0435
      9 C           7.5062    2.4971    0.0000 C.3     1  UNL1       -0.0128
     10 C           7.1397   -0.0644    0.0000 C.3     1  UNL1        0.0639
     11 C           4.5947    0.8632    0.0000 C.ar    1  UNL1        0.0220
     12 C           3.7657    1.4224    0.0000 C.ar    1  UNL1        0.1296
     13 C           6.3334    3.6607    0.0000 C.3     1  UNL1       -0.0249
     14 C           4.5381   -0.1769    0.0000 C.ar    1  UNL1        0.0545
     15 C           7.1921   -1.0630    0.0000 C.3     1  UNL1       -0.0361
     16 C           6.1411   -0.1167    0.0000 C.3     1  UNL1       -0.0361
     17 C           2.8225    0.9803    0.0000 C.ar    1  UNL1       -0.0078
     18 C           3.6054   -0.6407    0.0000 C.ar    1  UNL1        0.0081
     19 C           2.7418   -0.0582    0.0000 C.ar    1  UNL1       -0.0456
     20 C           3.7601   -1.6646    0.0000 C.ar    1  UNL1        0.0074
     21 C           4.7813   -1.8356    0.0000 C.ar    1  UNL1        0.0475
     22 C           2.0000    1.5490    0.0000 C.3     1  UNL1       -0.0362
     23 C           3.0611   -2.4860    0.0000 C.ar    1  UNL1       -0.0520
     24 C           5.1744   -2.8400    0.0000 C.ar    1  UNL1       -0.0378
     25 C           3.4309   -3.4992    0.0000 C.ar    1  UNL1       -0.0611
     26 C           4.4947   -3.6774    0.0000 C.ar    1  UNL1       -0.0598
     27 H           6.3180    2.0923    0.0000 H       1  UNL1        0.0355
     28 H           7.6538    0.6821    0.0000 H       1  UNL1        0.0334
     29 H           5.6557    4.2098    0.0000 H       1  UNL1        0.0309
     30 H           4.7248    3.7694    0.0000 H       1  UNL1        0.0309
     31 H           8.2022    1.0436    0.0000 H       1  UNL1        0.0270
     32 H           8.4170    1.8450    0.0000 H       1  UNL1        0.0270
     33 H           8.1140    2.6195    0.0000 H       1  UNL1        0.0304
     34 H           7.4871    3.1168    0.0000 H       1  UNL1        0.0304
     35 H           6.9322    3.5002    0.0000 H       1  UNL1        0.0268
     36 H           6.4938    4.2596    0.0000 H       1  UNL1        0.0268
     37 H           5.7345    3.8212    0.0000 H       1  UNL1        0.0268
     38 H           6.5729   -1.0955    0.0000 H       1  UNL1        0.0257
     39 H           7.2245   -1.6822    0.0000 H       1  UNL1        0.0257
     40 H           7.8112   -1.0306    0.0000 H       1  UNL1        0.0257
     41 H           6.1087    0.5024    0.0000 H       1  UNL1        0.0257
     42 H           5.5220   -0.1492    0.0000 H       1  UNL1        0.0257
     43 H           6.1736   -0.7359    0.0000 H       1  UNL1        0.0257
     44 H           8.4760   -0.5320    0.0000 H       1  UNL1        0.2101
     45 H           2.1836   -0.3279    0.0000 H       1  UNL1        0.0628
     46 H           5.8746   -0.8281    0.0000 H       1  UNL1        0.1659
     47 H           2.3526    2.0590    0.0000 H       1  UNL1        0.0279
     48 H           1.4900    1.9016    0.0000 H       1  UNL1        0.0279
     49 H           1.6474    1.0390    0.0000 H       1  UNL1        0.0279
     50 H           2.4509   -2.3765    0.0000 H       1  UNL1        0.0624
     51 H           5.7870   -2.9353    0.0000 H       1  UNL1        0.0638
     52 H           3.0346   -3.9760    0.0000 H       1  UNL1        0.0618
     53 H           4.7139   -4.2573    0.0000 H       1  UNL1        0.0618
@<TRIPOS>BOND
     1     1     6    1
     2     1    12    1
     3     2    10    1
     4     2    44    1
     5     3    14   ar
     6     3    21   ar
     7     3    46    1
     8     4     5    1
     9     4     7    1
    10     4    11    1
    11     4    27    1
    12     5     8    1
    13     5    10    1
    14     5    28    1
    15     6     7    1
    16     6     9    1
    17     6    13    1
    18     7    29    1
    19     7    30    1
    20     8     9    1
    21     8    31    1
    22     8    32    1
    23     9    33    1
    24     9    34    1
    25    10    15    1
    26    10    16    1
    27    11    12   ar
    28    11    14   ar
    29    12    17   ar
    30    13    35    1
    31    13    36    1
    32    13    37    1
    33    14    18   ar
    34    15    38    1
    35    15    39    1
    36    15    40    1
    37    16    41    1
    38    16    42    1
    39    16    43    1
    40    17    19   ar
    41    17    22    1
    42    18    19   ar
    43    18    20   ar
    44    19    45    1
    45    20    21   ar
    46    20    23   ar
    47    21    24   ar
    48    22    47    1
    49    22    48    1
    50    22    49    1
    51    23    25   ar
    52    23    50    1
    53    24    26   ar
    54    24    51    1
    55    25    26   ar
    56    25    52    1
    57    26    53    1
