@<TRIPOS>MOLECULE
IMPHY005867
 47 51 0 0 0
SMALL
GASTEIGER

@<TRIPOS>ATOM
      1 O           3.9061   -1.6040    0.0000 O.3     1  UNL1       -0.4814
      2 O           7.4260   -1.6040    0.0000 O.2     1  UNL1       -0.4213
      3 O           5.6660    1.4306    0.0000 O.3     1  UNL1       -0.4936
      4 O           7.4144    1.4652    0.0000 O.3     1  UNL1       -0.5051
      5 O          11.8756    0.1604    0.0000 O.3     1  UNL1       -0.4526
      6 O          11.8694    1.7698    0.0000 O.3     1  UNL1       -0.4526
      7 O           9.1962   -1.5935    0.0000 O.2     1  UNL1       -0.2444
      8 C           3.0000   -1.0902    0.0000 C.3     1  UNL1        0.1235
      9 C           4.8000   -0.0694    0.0000 C.ar    1  UNL1        0.0591
     10 C           4.8000   -1.0694    0.0000 C.ar    1  UNL1        0.1359
     11 C           6.5320   -0.0694    0.0000 C.ar    1  UNL1        0.1019
     12 C           3.0000   -0.0485    0.0000 C.2     1  UNL1       -0.0408
     13 C           5.6660    0.4306    0.0000 C.ar    1  UNL1        0.1449
     14 C           3.9061    0.4653    0.0000 C.2     1  UNL1       -0.0478
     15 C           6.5320   -1.0694    0.0000 C.ar    1  UNL1        0.1496
     16 C           2.0000   -1.0940    0.0000 C.3     1  UNL1       -0.0215
     17 C           2.5033   -1.9581    0.0000 C.3     1  UNL1       -0.0215
     18 C           5.6660   -1.5694    0.0000 C.ar    1  UNL1        0.0241
     19 C           7.4260    0.4653    0.0000 C.ar    1  UNL1        0.1456
     20 C           8.3321   -0.0485    0.0000 C.ar    1  UNL1        0.1087
     21 C           9.1962    0.4548    0.0000 C.ar    1  UNL1       -0.0038
     22 C           8.3321   -1.0902    0.0000 C.ar    1  UNL1        0.3486
     23 C          10.0641   -0.0419    0.0000 C.ar    1  UNL1       -0.0081
     24 C          10.9282    0.4615    0.0000 C.ar    1  UNL1        0.1668
     25 C           9.1923    1.4548    0.0000 C.ar    1  UNL1       -0.0500
     26 C          10.9243    1.4615    0.0000 C.ar    1  UNL1        0.1663
     27 C          10.0564    1.9581    0.0000 C.ar    1  UNL1       -0.0156
     28 C           4.8000    1.9306    0.0000 C.3     1  UNL1        0.0788
     29 C          12.4561    0.9674    0.0000 C.3     1  UNL1        0.2332
     30 H           2.4643    0.2635    0.0000 H       1  UNL1        0.0611
     31 H           3.9132    1.0853    0.0000 H       1  UNL1        0.0624
     32 H           1.9976   -0.4740    0.0000 H       1  UNL1        0.0271
     33 H           1.9652   -1.6502    0.0000 H       1  UNL1        0.0271
     34 H           2.1954   -2.4962    0.0000 H       1  UNL1        0.0271
     35 H           3.0415   -2.2660    0.0000 H       1  UNL1        0.0271
     36 H           1.3800   -1.0964    0.0000 H       1  UNL1        0.0271
     37 H           2.0024   -1.7140    0.0000 H       1  UNL1        0.0271
     38 H           5.6660   -2.1894    0.0000 H       1  UNL1        0.0691
     39 H          10.0665   -0.6619    0.0000 H       1  UNL1        0.0661
     40 H           8.6542    1.7627    0.0000 H       1  UNL1        0.0625
     41 H          10.0540    2.5781    0.0000 H       1  UNL1        0.0655
     42 H           6.8740    1.7690    0.0000 H       1  UNL1        0.2922
     43 H           5.1100    2.4676    0.0000 H       1  UNL1        0.0660
     44 H           4.2631    2.2406    0.0000 H       1  UNL1        0.0660
     45 H           4.4900    1.3937    0.0000 H       1  UNL1        0.0660
     46 H          12.9185    0.5544    0.0000 H       1  UNL1        0.1166
     47 H          12.9153    1.3839    0.0000 H       1  UNL1        0.1166
@<TRIPOS>BOND
     1     1     8    1
     2     1    10    1
     3     2    15   ar
     4     2    22   ar
     5     3    13    1
     6     3    28    1
     7     4    19    1
     8     4    42    1
     9     5    24    1
    10     5    29    1
    11     6    26    1
    12     6    29    1
    13     7    22    2
    14     8    12    1
    15     8    16    1
    16     8    17    1
    17     9    10   ar
    18     9    13   ar
    19     9    14    1
    20    10    18   ar
    21    11    13   ar
    22    11    15   ar
    23    11    19   ar
    24    12    14    2
    25    12    30    1
    26    14    31    1
    27    15    18   ar
    28    16    32    1
    29    16    36    1
    30    16    37    1
    31    17    33    1
    32    17    34    1
    33    17    35    1
    34    18    38    1
    35    19    20   ar
    36    20    21    1
    37    20    22   ar
    38    21    23   ar
    39    21    25   ar
    40    23    24   ar
    41    23    39    1
    42    24    26   ar
    43    25    27   ar
    44    25    40    1
    45    26    27   ar
    46    27    41    1
    47    28    43    1
    48    28    44    1
    49    28    45    1
    50    29    46    1
    51    29    47    1
