@<TRIPOS>MOLECULE
IMPHY015507
 28 28 0 0 0
SMALL
GASTEIGER

@<TRIPOS>ATOM
      1 O           3.7320    0.2500    0.0000 O.3     1  UNL1       -0.4566
      2 O           2.8660    1.7500    0.0000 O.2     1  UNL1       -0.2453
      3 C           2.8660   -1.2500    0.0000 C.ar    1  UNL1       -0.0103
      4 C           2.8660   -0.2500    0.0000 C.3     1  UNL1        0.1178
      5 C           2.0000   -1.7500    0.0000 C.ar    1  UNL1       -0.0554
      6 C           3.7320   -1.7500    0.0000 C.ar    1  UNL1       -0.0554
      7 C           4.5981    1.7500    0.0000 C.2     1  UNL1        0.0293
      8 C           3.7320    1.2500    0.0000 C.2     1  UNL1        0.3349
      9 C           2.0000   -2.7500    0.0000 C.ar    1  UNL1       -0.0614
     10 C           3.7320   -2.7500    0.0000 C.ar    1  UNL1       -0.0614
     11 C           2.8660   -3.2500    0.0000 C.ar    1  UNL1       -0.0617
     12 C           5.4641    1.2500    0.0000 C.3     1  UNL1       -0.0333
     13 C           4.5981    2.7500    0.0000 C.2     1  UNL1       -0.0774
     14 C           5.4641    3.2500    0.0000 C.3     1  UNL1       -0.0461
     15 H           2.6540    0.3326    0.0000 H       1  UNL1        0.0749
     16 H           2.2554   -0.3577    0.0000 H       1  UNL1        0.0749
     17 H           1.4631   -1.4400    0.0000 H       1  UNL1        0.0621
     18 H           4.2690   -1.4400    0.0000 H       1  UNL1        0.0621
     19 H           1.4631   -3.0600    0.0000 H       1  UNL1        0.0618
     20 H           4.2690   -3.0600    0.0000 H       1  UNL1        0.0618
     21 H           2.8660   -3.8700    0.0000 H       1  UNL1        0.0618
     22 H           5.1541    0.7131    0.0000 H       1  UNL1        0.0280
     23 H           6.0010    0.9400    0.0000 H       1  UNL1        0.0280
     24 H           5.7741    1.7869    0.0000 H       1  UNL1        0.0280
     25 H           4.0611    3.0600    0.0000 H       1  UNL1        0.0574
     26 H           5.7741    2.7131    0.0000 H       1  UNL1        0.0272
     27 H           6.0010    3.5600    0.0000 H       1  UNL1        0.0272
     28 H           5.1541    3.7869    0.0000 H       1  UNL1        0.0272
@<TRIPOS>BOND
     1     1     4    1
     2     1     8    1
     3     2     8    2
     4     3     4    1
     5     3     5   ar
     6     3     6   ar
     7     4    15    1
     8     4    16    1
     9     5     9   ar
    10     5    17    1
    11     6    10   ar
    12     6    18    1
    13     7     8    1
    14     7    12    1
    15     7    13    2
    16     9    11   ar
    17     9    19    1
    18    10    11   ar
    19    10    20    1
    20    11    21    1
    21    12    22    1
    22    12    23    1
    23    12    24    1
    24    13    14    1
    25    13    25    1
    26    14    26    1
    27    14    27    1
    28    14    28    1
