@<TRIPOS>MOLECULE
IMPHY011790
 27 26 0 0 0
SMALL
GASTEIGER

@<TRIPOS>ATOM
      1 O           2.0000    1.5000    0.0000 O.2     1  UNL1       -0.2963
      2 C           4.5981    0.0000    0.0000 C.3     1  UNL1       -0.0282
      3 C           5.4641   -0.5000    0.0000 C.3     1  UNL1       -0.0308
      4 C           3.7320   -0.5000    0.0000 C.2     1  UNL1       -0.0693
      5 C           6.3301    0.0000    0.0000 C.2     1  UNL1       -0.0850
      6 C           7.1962   -0.5000    0.0000 C.2     1  UNL1       -0.0796
      7 C           3.7320   -1.5000    0.0000 C.3     1  UNL1       -0.0434
      8 C           2.8660    0.0000    0.0000 C.2     1  UNL1       -0.0235
      9 C           8.0622   -0.0000    0.0000 C.3     1  UNL1       -0.0440
     10 C           7.1962   -1.5000    0.0000 C.3     1  UNL1       -0.0440
     11 C           2.8660    1.0000    0.0000 C.2     1  UNL1        0.1431
     12 H           4.9966    0.4749    0.0000 H       1  UNL1        0.0313
     13 H           4.1996    0.4749    0.0000 H       1  UNL1        0.0313
     14 H           5.0656   -0.9749    0.0000 H       1  UNL1        0.0310
     15 H           5.8626   -0.9749    0.0000 H       1  UNL1        0.0310
     16 H           6.3301    0.6200    0.0000 H       1  UNL1        0.0572
     17 H           3.1120   -1.5000    0.0000 H       1  UNL1        0.0274
     18 H           3.7320   -2.1200    0.0000 H       1  UNL1        0.0274
     19 H           4.3520   -1.5000    0.0000 H       1  UNL1        0.0274
     20 H           8.3722   -0.5369    0.0000 H       1  UNL1        0.0274
     21 H           8.5991    0.3100    0.0000 H       1  UNL1        0.0274
     22 H           7.7522    0.5369    0.0000 H       1  UNL1        0.0274
     23 H           6.5762   -1.5000    0.0000 H       1  UNL1        0.0274
     24 H           7.1962   -2.1200    0.0000 H       1  UNL1        0.0274
     25 H           7.8162   -1.5000    0.0000 H       1  UNL1        0.0274
     26 H           2.3291   -0.3100    0.0000 H       1  UNL1        0.0649
     27 H           3.4030    1.3100    0.0000 H       1  UNL1        0.1075
@<TRIPOS>BOND
     1     1    11    2
     2     2     3    1
     3     2     4    1
     4     2    12    1
     5     2    13    1
     6     3     5    1
     7     3    14    1
     8     3    15    1
     9     4     7    1
    10     4     8    2
    11     5     6    2
    12     5    16    1
    13     6     9    1
    14     6    10    1
    15     7    17    1
    16     7    18    1
    17     7    19    1
    18     8    11    1
    19     8    26    1
    20     9    20    1
    21     9    21    1
    22     9    22    1
    23    10    23    1
    24    10    24    1
    25    10    25    1
    26    11    27    1
