@<TRIPOS>MOLECULE
IMPHY009730
 40 41 0 0 0
SMALL
GASTEIGER

@<TRIPOS>ATOM
      1 O           2.5369   -2.5950    0.0000 O.3     1  UNL1       -0.3907
      2 C           4.2690    1.4050    0.0000 C.3     1  UNL1       -0.0314
      3 C           4.2690    0.4050    0.0000 C.3     1  UNL1       -0.0130
      4 C           3.4030    1.9050    0.0000 C.3     1  UNL1       -0.0405
      5 C           3.4030   -0.0950    0.0000 C.3     1  UNL1       -0.0115
      6 C           2.5369    1.4050    0.0000 C.3     1  UNL1       -0.0496
      7 C           2.5369    0.4050    0.0000 C.3     1  UNL1       -0.0457
      8 C           5.1629    1.9397    0.0000 C.3     1  UNL1       -0.0457
      9 C           5.1629   -0.1297    0.0000 C.2     1  UNL1       -0.0811
     10 C           6.0690    1.4258    0.0000 C.3     1  UNL1       -0.0317
     11 C           3.4030    2.9050    0.0000 C.3     1  UNL1       -0.0621
     12 C           6.0690    0.3842    0.0000 C.2     1  UNL1       -0.0762
     13 C           3.4030   -1.0950    0.0000 C.2     1  UNL1       -0.0479
     14 C           6.9331   -0.1192    0.0000 C.3     1  UNL1       -0.0438
     15 C           2.5369   -1.5950    0.0000 C.3     1  UNL1        0.0653
     16 C           4.2690   -1.5950    0.0000 C.2     1  UNL1       -0.0970
     17 H           4.2624    2.2550    0.0000 H       1  UNL1        0.0309
     18 H           4.2624   -0.4450    0.0000 H       1  UNL1        0.0352
     19 H           2.8660    2.2150    0.0000 H       1  UNL1        0.0301
     20 H           2.8660   -0.4050    0.0000 H       1  UNL1        0.0352
     21 H           2.3249    1.9876    0.0000 H       1  UNL1        0.0268
     22 H           1.9264    1.2973    0.0000 H       1  UNL1        0.0268
     23 H           1.9264    0.5127    0.0000 H       1  UNL1        0.0271
     24 H           2.3249   -0.1776    0.0000 H       1  UNL1        0.0271
     25 H           5.5566    2.4187    0.0000 H       1  UNL1        0.0271
     26 H           4.7583    2.4094    0.0000 H       1  UNL1        0.0271
     27 H           5.1558   -0.7496    0.0000 H       1  UNL1        0.0575
     28 H           6.6798    1.3197    0.0000 H       1  UNL1        0.0310
     29 H           6.2780    2.0095    0.0000 H       1  UNL1        0.0310
     30 H           4.0230    2.9050    0.0000 H       1  UNL1        0.0233
     31 H           3.4030    3.5250    0.0000 H       1  UNL1        0.0233
     32 H           2.7830    2.9050    0.0000 H       1  UNL1        0.0233
     33 H           6.6210   -0.6549    0.0000 H       1  UNL1        0.0274
     34 H           7.4688   -0.4312    0.0000 H       1  UNL1        0.0274
     35 H           7.2452    0.4166    0.0000 H       1  UNL1        0.0274
     36 H           2.3249   -1.0124    0.0000 H       1  UNL1        0.0604
     37 H           1.9264   -1.7027    0.0000 H       1  UNL1        0.0604
     38 H           4.2690   -2.2150    0.0000 H       1  UNL1        0.0535
     39 H           4.8059   -1.2850    0.0000 H       1  UNL1        0.0535
     40 H           2.0000   -2.9050    0.0000 H       1  UNL1        0.2098
@<TRIPOS>BOND
     1     1    15    1
     2     1    40    1
     3     2     3    1
     4     2     4    1
     5     2     8    1
     6     2    17    1
     7     3     5    1
     8     3     9    1
     9     3    18    1
    10     4     6    1
    11     4    11    1
    12     4    19    1
    13     5     7    1
    14     5    13    1
    15     5    20    1
    16     6     7    1
    17     6    21    1
    18     6    22    1
    19     7    23    1
    20     7    24    1
    21     8    10    1
    22     8    25    1
    23     8    26    1
    24     9    12    2
    25     9    27    1
    26    10    12    1
    27    10    28    1
    28    10    29    1
    29    11    30    1
    30    11    31    1
    31    11    32    1
    32    12    14    1
    33    13    15    1
    34    13    16    2
    35    14    33    1
    36    14    34    1
    37    14    35    1
    38    15    36    1
    39    15    37    1
    40    16    38    1
    41    16    39    1
