@<TRIPOS>MOLECULE
IMPHY006235
 78 82 0 0 0
SMALL
GASTEIGER

@<TRIPOS>ATOM
      1 O           6.3301   -2.0000    0.0000 O.3     1  UNL1       -0.3302
      2 O           8.0622   -2.0000    0.0000 O.3     1  UNL1       -0.4608
      3 O           6.3301   -5.0000    0.0000 O.3     1  UNL1       -0.3864
      4 O           4.5981   -4.0000    0.0000 O.3     1  UNL1       -0.3864
      5 O           8.0622   -4.0000    0.0000 O.3     1  UNL1       -0.3829
      6 O           4.5981   -1.0000    0.0000 O.3     1  UNL1       -0.4589
      7 O           2.8660   -1.0000    0.0000 O.2     1  UNL1       -0.2456
      8 O           4.5981    4.0000    0.0000 O.3     1  UNL1       -0.4914
      9 O           2.8660    5.0000    0.0000 O.3     1  UNL1       -0.5033
     10 N           8.9282    3.5000    0.0000 N.3     1  UNL1       -0.2949
     11 C           8.0622    4.0000    0.0000 C.3     1  UNL1        0.0145
     12 C           8.2714    4.9718    0.0000 C.3     1  UNL1       -0.0359
     13 C           9.6652    4.1671    0.0000 C.3     1  UNL1       -0.0004
     14 C           9.2601    5.0749    0.0000 C.3     1  UNL1       -0.0388
     15 C           7.1962    3.5000    0.0000 C.3     1  UNL1       -0.0157
     16 C           8.9282    2.5000    0.0000 C.3     1  UNL1        0.0248
     17 C           7.1962    2.5000    0.0000 C.2     1  UNL1       -0.0662
     18 C           8.0622    2.0000    0.0000 C.2     1  UNL1       -0.0272
     19 C           8.0622    1.0000    0.0000 C.ar    1  UNL1       -0.0204
     20 C           6.3301    2.0000    0.0000 C.3     1  UNL1       -0.0431
     21 C           6.3301   -4.0000    0.0000 C.3     1  UNL1        0.1152
     22 C           5.4641   -3.5000    0.0000 C.3     1  UNL1        0.1130
     23 C           7.1962   -3.5000    0.0000 C.3     1  UNL1        0.1454
     24 C           5.4641   -2.5000    0.0000 C.3     1  UNL1        0.1250
     25 C           7.1962   -2.5000    0.0000 C.3     1  UNL1        0.2308
     26 C           7.1962    0.5000    0.0000 C.ar    1  UNL1       -0.0508
     27 C           8.9282    0.5000    0.0000 C.ar    1  UNL1       -0.0508
     28 C           8.0622   -1.0000    0.0000 C.ar    1  UNL1        0.1240
     29 C           4.5981   -2.0000    0.0000 C.3     1  UNL1        0.1215
     30 C           7.1962   -0.5000    0.0000 C.ar    1  UNL1       -0.0193
     31 C           8.9282   -0.5000    0.0000 C.ar    1  UNL1       -0.0193
     32 C           3.7320   -0.5000    0.0000 C.2     1  UNL1        0.3320
     33 C           3.7320    0.5000    0.0000 C.2     1  UNL1        0.0231
     34 C           2.8660    1.0000    0.0000 C.2     1  UNL1       -0.0477
     35 C           2.8660    2.0000    0.0000 C.ar    1  UNL1       -0.0211
     36 C           3.7320    2.5000    0.0000 C.ar    1  UNL1       -0.0092
     37 C           2.0000    2.5000    0.0000 C.ar    1  UNL1       -0.0509
     38 C           3.7320    3.5000    0.0000 C.ar    1  UNL1        0.1618
     39 C           2.0000    3.5000    0.0000 C.ar    1  UNL1       -0.0160
     40 C           2.8660    4.0000    0.0000 C.ar    1  UNL1        0.1585
     41 C           4.5981    5.0000    0.0000 C.3     1  UNL1        0.0790
     42 H           7.3752    4.5005    0.0000 H       1  UNL1        0.0466
     43 H           8.2723    5.5918    0.0000 H       1  UNL1        0.0281
     44 H           7.6549    5.0379    0.0000 H       1  UNL1        0.0281
     45 H          10.0307    3.6662    0.0000 H       1  UNL1        0.0427
     46 H          10.2017    4.4779    0.0000 H       1  UNL1        0.0427
     47 H           9.8497    5.2666    0.0000 H       1  UNL1        0.0278
     48 H           9.1314    5.6814    0.0000 H       1  UNL1        0.0278
     49 H           6.9841    4.0826    0.0000 H       1  UNL1        0.0325
     50 H           6.5856    3.3923    0.0000 H       1  UNL1        0.0325
     51 H           9.1403    1.9174    0.0000 H       1  UNL1        0.0476
     52 H           9.5388    2.6077    0.0000 H       1  UNL1        0.0476
     53 H           6.0201    2.5369    0.0000 H       1  UNL1        0.0275
     54 H           5.7932    1.6900    0.0000 H       1  UNL1        0.0275
     55 H           6.6401    1.4631    0.0000 H       1  UNL1        0.0275
     56 H           7.0662   -4.4250    0.0000 H       1  UNL1        0.0648
     57 H           4.7280   -3.0750    0.0000 H       1  UNL1        0.0647
     58 H           7.9323   -3.0750    0.0000 H       1  UNL1        0.0683
     59 H           5.4641   -1.6500    0.0000 H       1  UNL1        0.0658
     60 H           7.1962   -1.6500    0.0000 H       1  UNL1        0.1084
     61 H           6.6592    0.8100    0.0000 H       1  UNL1        0.0625
     62 H           9.4651    0.8100    0.0000 H       1  UNL1        0.0625
     63 H           3.9875   -1.8923    0.0000 H       1  UNL1        0.0725
     64 H           4.3860   -2.5826    0.0000 H       1  UNL1        0.0725
     65 H           6.6592   -0.8100    0.0000 H       1  UNL1        0.0654
     66 H           9.4651   -0.8100    0.0000 H       1  UNL1        0.0654
     67 H           5.7932   -5.3100    0.0000 H       1  UNL1        0.2100
     68 H           4.0611   -3.6900    0.0000 H       1  UNL1        0.2100
     69 H           8.5991   -3.6900    0.0000 H       1  UNL1        0.2102
     70 H           4.2690    0.8100    0.0000 H       1  UNL1        0.0689
     71 H           2.3291    0.6900    0.0000 H       1  UNL1        0.0626
     72 H           4.2690    2.1900    0.0000 H       1  UNL1        0.0661
     73 H           1.4631    2.1900    0.0000 H       1  UNL1        0.0625
     74 H           1.4631    3.8100    0.0000 H       1  UNL1        0.0655
     75 H           2.3291    5.3100    0.0000 H       1  UNL1        0.2923
     76 H           5.2181    5.0000    0.0000 H       1  UNL1        0.0660
     77 H           4.5981    5.6200    0.0000 H       1  UNL1        0.0660
     78 H           3.9781    5.0000    0.0000 H       1  UNL1        0.0660
@<TRIPOS>BOND
     1     1    24    1
     2     1    25    1
     3     2    25    1
     4     2    28    1
     5     3    21    1
     6     3    67    1
     7     4    22    1
     8     4    68    1
     9     5    23    1
    10     5    69    1
    11     6    29    1
    12     6    32    1
    13     7    32    2
    14     8    38    1
    15     8    41    1
    16     9    40    1
    17     9    75    1
    18    10    11    1
    19    10    13    1
    20    10    16    1
    21    11    12    1
    22    11    15    1
    23    11    42    1
    24    12    14    1
    25    12    43    1
    26    12    44    1
    27    13    14    1
    28    13    45    1
    29    13    46    1
    30    14    47    1
    31    14    48    1
    32    15    17    1
    33    15    49    1
    34    15    50    1
    35    16    18    1
    36    16    51    1
    37    16    52    1
    38    17    18    2
    39    17    20    1
    40    18    19    1
    41    19    26   ar
    42    19    27   ar
    43    20    53    1
    44    20    54    1
    45    20    55    1
    46    21    22    1
    47    21    23    1
    48    21    56    1
    49    22    24    1
    50    22    57    1
    51    23    25    1
    52    23    58    1
    53    24    29    1
    54    24    59    1
    55    25    60    1
    56    26    30   ar
    57    26    61    1
    58    27    31   ar
    59    27    62    1
    60    28    30   ar
    61    28    31   ar
    62    29    63    1
    63    29    64    1
    64    30    65    1
    65    31    66    1
    66    32    33    1
    67    33    34    2
    68    33    70    1
    69    34    35    1
    70    34    71    1
    71    35    36   ar
    72    35    37   ar
    73    36    38   ar
    74    36    72    1
    75    37    39   ar
    76    37    73    1
    77    38    40   ar
    78    39    40   ar
    79    39    74    1
    80    41    76    1
    81    41    77    1
    82    41    78    1
