@<TRIPOS>MOLECULE
IMPHY002352
 86 88 0 0 0
SMALL
GASTEIGER

@<TRIPOS>ATOM
      1 O           6.8533    1.6978    0.0000 O.3     1  UNL1       -0.4566
      2 O           2.4079    3.8561    0.0000 O.3     1  UNL1       -0.3944
      3 O           5.5173   -0.7607    0.0000 O.2     1  UNL1       -0.3007
      4 O           7.1016    5.0538    0.0000 O.3     1  UNL1       -0.4773
      5 O           5.5411    5.8053    0.0000 O.2     1  UNL1       -0.2455
      6 O           7.9332    3.0520    0.0000 O.2     1  UNL1       -0.2508
      7 O          17.1662   -5.4187    0.0000 O.3     1  UNL1       -0.3950
      8 C           5.1705    1.8874    0.0000 C.3     1  UNL1        0.0246
      9 C           4.2695    2.3213    0.0000 C.3     1  UNL1       -0.0230
     10 C           4.0470    3.2962    0.0000 C.3     1  UNL1        0.0016
     11 C           4.6705    4.0781    0.0000 C.3     1  UNL1       -0.0009
     12 C           5.2774    3.0642    0.0000 C.3     1  UNL1       -0.0351
     13 C           5.0345    0.9027    0.0000 C.3     1  UNL1        0.0241
     14 C           3.5844    1.6010    0.0000 C.3     1  UNL1       -0.0483
     15 C           6.0715    2.3213    0.0000 C.3     1  UNL1        0.1285
     16 C           4.0562    0.7260    0.0000 C.3     1  UNL1       -0.0428
     17 C           5.6705    4.0781    0.0000 C.2     1  UNL1        0.0396
     18 C           3.3891    4.0493    0.0000 C.3     1  UNL1        0.0504
     19 C           3.1275    2.9032    0.0000 C.3     1  UNL1       -0.0566
     20 C           6.2940    3.2962    0.0000 C.2     1  UNL1       -0.0332
     21 C           5.7561    0.2104    0.0000 C.2     1  UNL1        0.1240
     22 C           6.1044    4.9790    0.0000 C.2     1  UNL1        0.3329
     23 C           7.7842    2.0632    0.0000 C.2     1  UNL1        0.3076
     24 C           8.5660    1.4397    0.0000 C.3     1  UNL1        0.0450
     25 C           9.4969    1.8050    0.0000 C.3     1  UNL1       -0.0430
     26 C          10.2787    1.1815    0.0000 C.3     1  UNL1       -0.0526
     27 C          11.2096    1.5469    0.0000 C.3     1  UNL1       -0.0530
     28 C          11.9914    0.9234    0.0000 C.3     1  UNL1       -0.0528
     29 C          12.9223    1.2887    0.0000 C.3     1  UNL1       -0.0496
     30 C          13.7041    0.6652    0.0000 C.3     1  UNL1       -0.0348
     31 C          14.6350    1.0306    0.0000 C.2     1  UNL1       -0.0879
     32 C          15.4168    0.4071    0.0000 C.2     1  UNL1       -0.0879
     33 C          15.2678   -0.5818    0.0000 C.3     1  UNL1       -0.0348
     34 C          16.0496   -1.2052    0.0000 C.3     1  UNL1       -0.0496
     35 C          15.9006   -2.1941    0.0000 C.3     1  UNL1       -0.0527
     36 C          16.6824   -2.8176    0.0000 C.3     1  UNL1       -0.0510
     37 C          16.5334   -3.8064    0.0000 C.3     1  UNL1       -0.0297
     38 C          17.3152   -4.4299    0.0000 C.3     1  UNL1        0.0442
     39 H           3.5037    2.6901    0.0000 H       1  UNL1        0.0314
     40 H           4.4814    4.9068    0.0000 H       1  UNL1        0.0357
     41 H           5.8474    2.8204    0.0000 H       1  UNL1        0.0278
     42 H           5.6852    3.5312    0.0000 H       1  UNL1        0.0278
     43 H           5.6202    1.1062    0.0000 H       1  UNL1        0.0381
     44 H           3.1826    2.0732    0.0000 H       1  UNL1        0.0268
     45 H           3.0727    1.2510    0.0000 H       1  UNL1        0.0268
     46 H           6.6567    2.5261    0.0000 H       1  UNL1        0.0785
     47 H           3.4826    0.4908    0.0000 H       1  UNL1        0.0272
     48 H           4.2299    0.1309    0.0000 H       1  UNL1        0.0272
     49 H           3.9197    4.3700    0.0000 H       1  UNL1        0.0563
     50 H           3.1654    4.6276    0.0000 H       1  UNL1        0.0563
     51 H           2.8838    3.4733    0.0000 H       1  UNL1        0.0236
     52 H           2.5574    2.6595    0.0000 H       1  UNL1        0.0236
     53 H           3.3712    2.3331    0.0000 H       1  UNL1        0.0236
     54 H           6.8984    3.4342    0.0000 H       1  UNL1        0.0614
     55 H           6.3515    0.3832    0.0000 H       1  UNL1        0.1029
     56 H           2.0000    4.3230    0.0000 H       1  UNL1        0.2094
     57 H           7.3706    5.6124    0.0000 H       1  UNL1        0.2954
     58 H           8.1011    1.0294    0.0000 H       1  UNL1        0.0377
     59 H           8.8893    0.9106    0.0000 H       1  UNL1        0.0377
     60 H           9.9617    2.2153    0.0000 H       1  UNL1        0.0270
     61 H           9.1736    2.3340    0.0000 H       1  UNL1        0.0270
     62 H           9.8138    0.7713    0.0000 H       1  UNL1        0.0265
     63 H          10.6020    0.6525    0.0000 H       1  UNL1        0.0265
     64 H          11.6744    1.9571    0.0000 H       1  UNL1        0.0265
     65 H          10.8863    2.0759    0.0000 H       1  UNL1        0.0265
     66 H          11.5266    0.5131    0.0000 H       1  UNL1        0.0265
     67 H          12.3147    0.3943    0.0000 H       1  UNL1        0.0265
     68 H          13.3872    1.6990    0.0000 H       1  UNL1        0.0268
     69 H          12.5990    1.8178    0.0000 H       1  UNL1        0.0268
     70 H          13.2393    0.2550    0.0000 H       1  UNL1        0.0307
     71 H          14.0274    0.1362    0.0000 H       1  UNL1        0.0307
     72 H          14.7274    1.6436    0.0000 H       1  UNL1        0.0569
     73 H          15.9940    0.6336    0.0000 H       1  UNL1        0.0569
     74 H          14.6801   -0.3843    0.0000 H       1  UNL1        0.0307
     75 H          14.9713   -1.1262    0.0000 H       1  UNL1        0.0307
     76 H          16.6373   -1.4027    0.0000 H       1  UNL1        0.0268
     77 H          16.3461   -0.6607    0.0000 H       1  UNL1        0.0268
     78 H          15.3129   -1.9966    0.0000 H       1  UNL1        0.0265
     79 H          15.6041   -2.7386    0.0000 H       1  UNL1        0.0265
     80 H          17.2701   -3.0150    0.0000 H       1  UNL1        0.0266
     81 H          16.9789   -2.2731    0.0000 H       1  UNL1        0.0266
     82 H          15.9456   -3.6089    0.0000 H       1  UNL1        0.0287
     83 H          16.2368   -4.3509    0.0000 H       1  UNL1        0.0287
     84 H          17.9029   -4.6274    0.0000 H       1  UNL1        0.0557
     85 H          17.6117   -3.8854    0.0000 H       1  UNL1        0.0557
     86 H          17.6509   -5.8053    0.0000 H       1  UNL1        0.2094
@<TRIPOS>BOND
     1    15     1    1
     2     1    23    1
     3     2    18    1
     4     2    56    1
     5     3    21    2
     6     4    22    1
     7     4    57    1
     8     5    22    2
     9     6    23    2
    10     7    38    1
    11     7    86    1
    12     8     9    1
    13     8    12    1
    14     8    13    1
    15     8    15    1
    16     9    10    1
    17     9    14    1
    18     9    39    1
    19    10    11    1
    20    10    18    1
    21    10    19    1
    22    11    12    1
    23    11    17    1
    24    11    40    1
    25    12    41    1
    26    12    42    1
    27    13    16    1
    28    13    21    1
    29    13    43    1
    30    14    16    1
    31    14    44    1
    32    14    45    1
    33    15    20    1
    34    15    46    1
    35    16    47    1
    36    16    48    1
    37    17    20    2
    38    17    22    1
    39    18    49    1
    40    18    50    1
    41    19    51    1
    42    19    52    1
    43    19    53    1
    44    20    54    1
    45    21    55    1
    46    23    24    1
    47    24    25    1
    48    24    58    1
    49    24    59    1
    50    25    26    1
    51    25    60    1
    52    25    61    1
    53    26    27    1
    54    26    62    1
    55    26    63    1
    56    27    28    1
    57    27    64    1
    58    27    65    1
    59    28    29    1
    60    28    66    1
    61    28    67    1
    62    29    30    1
    63    29    68    1
    64    29    69    1
    65    30    31    1
    66    30    70    1
    67    30    71    1
    68    31    32    2
    69    31    72    1
    70    32    33    1
    71    32    73    1
    72    33    34    1
    73    33    74    1
    74    33    75    1
    75    34    35    1
    76    34    76    1
    77    34    77    1
    78    35    36    1
    79    35    78    1
    80    35    79    1
    81    36    37    1
    82    36    80    1
    83    36    81    1
    84    37    38    1
    85    37    82    1
    86    37    83    1
    87    38    84    1
    88    38    85    1
