@<TRIPOS>MOLECULE
IMPHY004814
 63 66 0 0 0
SMALL
GASTEIGER

@<TRIPOS>ATOM
      1 O           5.1350   -1.3813    0.0000 O.3     1  UNL1       -0.3313
      2 O           6.8671   -1.3813    0.0000 O.3     1  UNL1       -0.4515
      3 O           5.1350   -4.3813    0.0000 O.3     1  UNL1       -0.3864
      4 O           3.4030   -3.3813    0.0000 O.3     1  UNL1       -0.3865
      5 O           6.8671   -3.3813    0.0000 O.3     1  UNL1       -0.3829
      6 O           2.5369   -1.8813    0.0000 O.3     1  UNL1       -0.3924
      7 O           7.7331    1.1187    0.0000 O.2     1  UNL1       -0.1997
      8 O           4.2308    1.1156    0.0000 O.3     1  UNL1       -0.5057
      9 O           5.9889    4.1880    0.0000 O.3     1  UNL1       -0.4947
     10 O          11.1972    0.1187    0.0000 O.3     1  UNL1       -0.4913
     11 O           9.4651   -2.8813    0.0000 O.3     1  UNL1       -0.4913
     12 O          11.1972   -1.8813    0.0000 O.3     1  UNL1       -0.5009
     13 C           5.1350   -3.3813    0.0000 C.3     1  UNL1        0.1152
     14 C           4.2690   -2.8813    0.0000 C.3     1  UNL1        0.1120
     15 C           6.0010   -2.8813    0.0000 C.3     1  UNL1        0.1454
     16 C           4.2690   -1.8813    0.0000 C.3     1  UNL1        0.1140
     17 C           6.0010   -1.8813    0.0000 C.3     1  UNL1        0.2312
     18 C           3.4030   -1.3813    0.0000 C.3     1  UNL1        0.0731
     19 C           6.8671   -0.3813    0.0000 C.ar    1  UNL1        0.2288
     20 C           7.7331    0.1187    0.0000 C.ar    1  UNL1        0.4047
     21 C           6.0010    0.1187    0.0000 C.ar    1  UNL1        0.0093
     22 C           6.0010    1.1187    0.0000 C.ar    1  UNL1        0.1241
     23 C           8.5991   -0.3813    0.0000 C.ar    1  UNL1        0.0899
     24 C           6.8671    1.6187    0.0000 C.ar    1  UNL1        0.3708
     25 C           5.0910    1.6256    0.0000 C.ar    1  UNL1        0.1366
     26 C           6.8831    2.6602    0.0000 C.ar    1  UNL1        0.0849
     27 C           8.5991   -1.3813    0.0000 C.ar    1  UNL1        0.0002
     28 C           9.4651    0.1187    0.0000 C.ar    1  UNL1        0.0002
     29 C           5.0830    2.6672    0.0000 C.ar    1  UNL1        0.0227
     30 C           5.9851    3.1880    0.0000 C.ar    1  UNL1        0.1325
     31 C          10.3312   -0.3813    0.0000 C.ar    1  UNL1        0.1658
     32 C           9.4651   -1.8813    0.0000 C.ar    1  UNL1        0.1658
     33 C          10.3312   -1.3813    0.0000 C.ar    1  UNL1        0.2011
     34 C           5.1248    4.6913    0.0000 C.3     1  UNL1        0.0788
     35 C          11.1972    1.1187    0.0000 C.3     1  UNL1        0.0790
     36 C          10.3312   -3.3813    0.0000 C.3     1  UNL1        0.0790
     37 H           5.6720   -3.6913    0.0000 H       1  UNL1        0.0648
     38 H           4.2690   -3.5013    0.0000 H       1  UNL1        0.0647
     39 H           6.5380   -2.5713    0.0000 H       1  UNL1        0.0683
     40 H           4.2690   -1.2613    0.0000 H       1  UNL1        0.0647
     41 H           6.0010   -1.2613    0.0000 H       1  UNL1        0.1084
     42 H           3.8015   -0.9063    0.0000 H       1  UNL1        0.0584
     43 H           3.0044   -0.9063    0.0000 H       1  UNL1        0.0584
     44 H           4.5981   -4.6913    0.0000 H       1  UNL1        0.2100
     45 H           3.4030   -4.0013    0.0000 H       1  UNL1        0.2100
     46 H           6.8671   -4.0013    0.0000 H       1  UNL1        0.2102
     47 H           2.0000   -1.5713    0.0000 H       1  UNL1        0.2095
     48 H           5.4641   -0.1913    0.0000 H       1  UNL1        0.0667
     49 H           7.4236    2.9640    0.0000 H       1  UNL1        0.0749
     50 H           8.0622   -1.6913    0.0000 H       1  UNL1        0.0664
     51 H           9.4651    0.7387    0.0000 H       1  UNL1        0.0664
     52 H           4.5449    2.9751    0.0000 H       1  UNL1        0.0691
     53 H           3.6904    1.4193    0.0000 H       1  UNL1        0.2922
     54 H          11.7341   -1.5713    0.0000 H       1  UNL1        0.2924
     55 H           5.4369    5.2270    0.0000 H       1  UNL1        0.0660
     56 H           4.5891    5.0034    0.0000 H       1  UNL1        0.0660
     57 H           4.8128    4.1556    0.0000 H       1  UNL1        0.0660
     58 H          11.8172    1.1187    0.0000 H       1  UNL1        0.0660
     59 H          11.1972    1.7387    0.0000 H       1  UNL1        0.0660
     60 H          10.5772    1.1187    0.0000 H       1  UNL1        0.0660
     61 H          10.0212   -3.9182    0.0000 H       1  UNL1        0.0660
     62 H          10.8681   -3.6913    0.0000 H       1  UNL1        0.0660
     63 H          10.6412   -2.8444    0.0000 H       1  UNL1        0.0660
@<TRIPOS>UNITY_ATOM_ATTR
7 1
charge 1
@<TRIPOS>BOND
     1     1    16    1
     2     1    17    1
     3    17     2    1
     4     2    19    1
     5    13     3    1
     6     3    44    1
     7    14     4    1
     8     4    45    1
     9     5    15    1
    10     5    46    1
    11     6    18    1
    12     6    47    1
    13     7    20   ar
    14     7    24   ar
    15     8    25    1
    16     8    53    1
    17     9    30    1
    18     9    34    1
    19    10    31    1
    20    10    35    1
    21    11    32    1
    22    11    36    1
    23    12    33    1
    24    12    54    1
    25    13    14    1
    26    13    15    1
    27    13    37    1
    28    14    16    1
    29    14    38    1
    30    15    17    1
    31    15    39    1
    32    16    18    1
    33    16    40    1
    34    17    41    1
    35    18    42    1
    36    18    43    1
    37    19    20   ar
    38    19    21   ar
    39    20    23    1
    40    21    22   ar
    41    21    48    1
    42    22    24   ar
    43    22    25   ar
    44    23    27   ar
    45    23    28   ar
    46    24    26   ar
    47    25    29   ar
    48    26    30   ar
    49    26    49    1
    50    27    32   ar
    51    27    50    1
    52    28    31   ar
    53    28    51    1
    54    29    30   ar
    55    29    52    1
    56    31    33   ar
    57    32    33   ar
    58    34    55    1
    59    34    56    1
    60    34    57    1
    61    35    58    1
    62    35    59    1
    63    35    60    1
    64    36    61    1
    65    36    62    1
    66    36    63    1
