@<TRIPOS>MOLECULE
IMPHY003162
 31 33 0 0 0
SMALL
GASTEIGER

@<TRIPOS>ATOM
      1 O           6.4144    1.7623    0.0000 O.3     1  UNL1       -0.4936
      2 O           4.6660    1.7277    0.0000 O.2     1  UNL1       -0.2865
      3 O           4.6660   -2.2723    0.0000 O.2     1  UNL1       -0.2866
      4 O           8.1962   -1.2964    0.0000 O.3     1  UNL1       -0.5059
      5 O           9.0641    0.2552    0.0000 O.2     1  UNL1       -0.2955
      6 C           5.5321    0.2277    0.0000 C.ar    1  UNL1        0.0756
      7 C           5.5321   -0.7723    0.0000 C.ar    1  UNL1        0.0401
      8 C           3.8000    0.2277    0.0000 C.ar    1  UNL1        0.0332
      9 C           3.8000   -0.7723    0.0000 C.ar    1  UNL1        0.0331
     10 C           4.6660    0.7277    0.0000 C.2     1  UNL1        0.1980
     11 C           4.6660   -1.2723    0.0000 C.2     1  UNL1        0.1947
     12 C           6.4260    0.7624    0.0000 C.ar    1  UNL1        0.1453
     13 C           6.4260   -1.3070    0.0000 C.ar    1  UNL1       -0.0077
     14 C           7.3321    0.2485    0.0000 C.ar    1  UNL1        0.0978
     15 C           7.3321   -0.7931    0.0000 C.ar    1  UNL1        0.1313
     16 C           2.9061    0.7624    0.0000 C.ar    1  UNL1       -0.0502
     17 C           2.9061   -1.3070    0.0000 C.ar    1  UNL1       -0.0502
     18 C           2.0000    0.2485    0.0000 C.ar    1  UNL1       -0.0610
     19 C           2.0000   -0.7931    0.0000 C.ar    1  UNL1       -0.0610
     20 C           8.1962    0.7519    0.0000 C.2     1  UNL1        0.1572
     21 C           7.2746    2.2723    0.0000 C.3     1  UNL1        0.0788
     22 H           6.4188   -1.9269    0.0000 H       1  UNL1        0.0661
     23 H           2.9132    1.3823    0.0000 H       1  UNL1        0.0625
     24 H           2.9132   -1.9269    0.0000 H       1  UNL1        0.0625
     25 H           1.4643    0.5606    0.0000 H       1  UNL1        0.0618
     26 H           1.4643   -1.1052    0.0000 H       1  UNL1        0.0618
     27 H           8.1938    1.3719    0.0000 H       1  UNL1        0.1084
     28 H           8.1938   -1.9164    0.0000 H       1  UNL1        0.2922
     29 H           7.5908    1.7390    0.0000 H       1  UNL1        0.0660
     30 H           7.8079    2.5885    0.0000 H       1  UNL1        0.0660
     31 H           6.9584    2.8056    0.0000 H       1  UNL1        0.0660
@<TRIPOS>BOND
     1     1    12    1
     2     1    21    1
     3     2    10    2
     4     3    11    2
     5     4    15    1
     6     4    28    1
     7     5    20    2
     8     6     7   ar
     9     6    10    1
    10     6    12   ar
    11     7    11    1
    12     7    13   ar
    13     8     9   ar
    14     8    10    1
    15     8    16   ar
    16     9    11    1
    17     9    17   ar
    18    12    14   ar
    19    13    15   ar
    20    13    22    1
    21    14    15   ar
    22    14    20    1
    23    16    18   ar
    24    16    23    1
    25    17    19   ar
    26    17    24    1
    27    18    19   ar
    28    18    25    1
    29    19    26    1
    30    20    27    1
    31    21    29    1
    32    21    30    1
    33    21    31    1
