@<TRIPOS>MOLECULE
IMPHY009551
 80 83 0 0 0
SMALL
GASTEIGER

@<TRIPOS>ATOM
      1 O           3.3434   -0.3876    0.0000 O.3     1  UNL1       -0.3639
      2 O           4.3432   -0.4069    0.0000 O.3     1  UNL1       -0.3639
      3 O           2.0024   -3.3727    0.0000 O.3     1  UNL1       -0.3913
      4 C           7.3955   -0.3204    0.0000 C.3     1  UNL1       -0.0256
      5 C           7.3955   -1.3204    0.0000 C.3     1  UNL1       -0.0320
      6 C           6.5294   -1.8204    0.0000 C.3     1  UNL1       -0.0305
      7 C           5.6634   -1.3204    0.0000 C.3     1  UNL1       -0.0236
      8 C           8.3417   -0.0156    0.0000 C.3     1  UNL1       -0.0294
      9 C           4.7534   -1.8272    0.0000 C.3     1  UNL1        0.0457
     10 C           6.5294    0.1796    0.0000 C.3     1  UNL1       -0.0468
     11 C           8.3417   -1.6251    0.0000 C.3     1  UNL1       -0.0492
     12 C           5.6634   -0.3204    0.0000 C.3     1  UNL1       -0.0485
     13 C           8.9253   -0.8204    0.0000 C.3     1  UNL1       -0.0489
     14 C           6.5455   -2.8619    0.0000 C.3     1  UNL1       -0.0311
     15 C           7.3955    0.6796    0.0000 C.3     1  UNL1       -0.0590
     16 C           4.7454   -2.8688    0.0000 C.2     1  UNL1       -0.0598
     17 C           3.8266   -1.2631    0.0000 C.3     1  UNL1        0.1762
     18 C           8.6524    0.9349    0.0000 C.3     1  UNL1       -0.0224
     19 C           5.6475   -3.3896    0.0000 C.2     1  UNL1       -0.0837
     20 C           4.9347   -0.8438    0.0000 C.3     1  UNL1       -0.0506
     21 C           3.8100   -3.4185    0.0000 C.3     1  UNL1       -0.0047
     22 C           2.8787   -1.7911    0.0000 C.3     1  UNL1        0.0282
     23 C           2.8703   -2.8760    0.0000 C.3     1  UNL1        0.0638
     24 C           7.9845    1.6792    0.0000 C.3     1  UNL1       -0.0587
     25 C           9.6309    1.1411    0.0000 C.2     1  UNL1       -0.0845
     26 C           9.9415    2.0916    0.0000 C.2     1  UNL1       -0.0843
     27 C          10.9200    2.2979    0.0000 C.3     1  UNL1       -0.0208
     28 C          11.2307    3.2484    0.0000 C.3     1  UNL1       -0.0405
     29 C          11.5879    1.5536    0.0000 C.3     1  UNL1       -0.0494
     30 C          12.2092    3.4546    0.0000 C.3     1  UNL1       -0.0621
     31 C          10.5628    3.9927    0.0000 C.3     1  UNL1       -0.0621
     32 C          12.5664    1.7598    0.0000 C.3     1  UNL1       -0.0647
     33 H           7.4854   -2.1656    0.0000 H       1  UNL1        0.0309
     34 H           7.2688   -2.2397    0.0000 H       1  UNL1        0.0310
     35 H           6.3995   -0.8954    0.0000 H       1  UNL1        0.0314
     36 H           9.1814    0.1163    0.0000 H       1  UNL1        0.0312
     37 H           6.9280    0.6546    0.0000 H       1  UNL1        0.0271
     38 H           6.1309    0.6546    0.0000 H       1  UNL1        0.0271
     39 H           8.0907   -2.1920    0.0000 H       1  UNL1        0.0268
     40 H           8.8791   -1.9343    0.0000 H       1  UNL1        0.0268
     41 H           5.4514    0.2623    0.0000 H       1  UNL1        0.0268
     42 H           5.0528   -0.4280    0.0000 H       1  UNL1        0.0268
     43 H           9.3862   -1.2351    0.0000 H       1  UNL1        0.0268
     44 H           9.3862   -0.4056    0.0000 H       1  UNL1        0.0268
     45 H           6.7635   -3.4423    0.0000 H       1  UNL1        0.0310
     46 H           7.1546   -2.7464    0.0000 H       1  UNL1        0.0310
     47 H           8.0155    0.6796    0.0000 H       1  UNL1        0.0235
     48 H           7.3955    1.2996    0.0000 H       1  UNL1        0.0235
     49 H           6.7755    0.6796    0.0000 H       1  UNL1        0.0235
     50 H           8.8450    1.5242    0.0000 H       1  UNL1        0.0343
     51 H           5.6499   -4.0096    0.0000 H       1  UNL1        0.0572
     52 H           5.5444   -0.9561    0.0000 H       1  UNL1        0.0240
     53 H           5.0470   -0.2340    0.0000 H       1  UNL1        0.0240
     54 H           4.3249   -0.7314    0.0000 H       1  UNL1        0.0240
     55 H           3.4127   -3.8945    0.0000 H       1  UNL1        0.0335
     56 H           4.2109   -3.8914    0.0000 H       1  UNL1        0.0335
     57 H           2.6742   -1.2058    0.0000 H       1  UNL1        0.0342
     58 H           2.2670   -1.8924    0.0000 H       1  UNL1        0.0342
     59 H           2.3352   -2.5629    0.0000 H       1  UNL1        0.0598
     60 H           8.4460    2.0933    0.0000 H       1  UNL1        0.0235
     61 H           7.5704    2.1407    0.0000 H       1  UNL1        0.0235
     62 H           7.5230    1.2651    0.0000 H       1  UNL1        0.0235
     63 H          10.0449    0.6797    0.0000 H       1  UNL1        0.0572
     64 H           4.0436    0.1359    0.0000 H       1  UNL1        0.2128
     65 H           2.7235   -0.3757    0.0000 H       1  UNL1        0.2128
     66 H           2.0000   -3.9927    0.0000 H       1  UNL1        0.2098
     67 H           9.5275    2.5531    0.0000 H       1  UNL1        0.0572
     68 H          11.5267    2.4257    0.0000 H       1  UNL1        0.0345
     69 H          11.4233    3.8377    0.0000 H       1  UNL1        0.0301
     70 H          11.0615    1.2259    0.0000 H       1  UNL1        0.0268
     71 H          11.8191    0.9783    0.0000 H       1  UNL1        0.0268
     72 H          12.3371    2.8479    0.0000 H       1  UNL1        0.0233
     73 H          12.8159    3.5824    0.0000 H       1  UNL1        0.0233
     74 H          12.0813    4.0613    0.0000 H       1  UNL1        0.0233
     75 H          11.0243    4.4067    0.0000 H       1  UNL1        0.0233
     76 H          10.1488    4.4542    0.0000 H       1  UNL1        0.0233
     77 H          10.1014    3.5786    0.0000 H       1  UNL1        0.0233
     78 H          12.6942    1.1531    0.0000 H       1  UNL1        0.0230
     79 H          13.1731    1.8876    0.0000 H       1  UNL1        0.0230
     80 H          12.4385    2.3664    0.0000 H       1  UNL1        0.0230
@<TRIPOS>BOND
     1     1    17    1
     2     1    65    1
     3     2    17    1
     4     2    64    1
     5    23     3    1
     6     3    66    1
     7     4     5    1
     8     4     8    1
     9     4    10    1
    10     4    15    1
    11     5     6    1
    12     5    11    1
    13     5    33    1
    14     6     7    1
    15     6    14    1
    16     6    34    1
    17     7     9    1
    18     7    12    1
    19     7    35    1
    20     8    13    1
    21     8    18    1
    22     8    36    1
    23     9    16    1
    24     9    17    1
    25     9    20    1
    26    10    12    1
    27    10    37    1
    28    10    38    1
    29    11    13    1
    30    11    39    1
    31    11    40    1
    32    12    41    1
    33    12    42    1
    34    13    43    1
    35    13    44    1
    36    14    19    1
    37    14    45    1
    38    14    46    1
    39    15    47    1
    40    15    48    1
    41    15    49    1
    42    16    19    2
    43    16    21    1
    44    17    22    1
    45    18    24    1
    46    18    25    1
    47    18    50    1
    48    19    51    1
    49    20    52    1
    50    20    53    1
    51    20    54    1
    52    21    23    1
    53    21    55    1
    54    21    56    1
    55    22    23    1
    56    22    57    1
    57    22    58    1
    58    23    59    1
    59    24    60    1
    60    24    61    1
    61    24    62    1
    62    25    26    2
    63    25    63    1
    64    26    27    1
    65    26    67    1
    66    27    28    1
    67    27    29    1
    68    27    68    1
    69    28    30    1
    70    28    31    1
    71    28    69    1
    72    29    32    1
    73    29    70    1
    74    29    71    1
    75    30    72    1
    76    30    73    1
    77    30    74    1
    78    31    75    1
    79    31    76    1
    80    31    77    1
    81    32    78    1
    82    32    79    1
    83    32    80    1
