@<TRIPOS>MOLECULE
IMPHY004905
 50 49 0 0 0
SMALL
GASTEIGER

@<TRIPOS>ATOM
      1 O           2.5369    1.0600    0.0000 O.3     1  UNL1       -0.4806
      2 O           3.4030   -0.4400    0.0000 O.2     1  UNL1       -0.2510
      3 C           6.8671    0.5600    0.0000 C.3     1  UNL1       -0.0530
      4 C           6.0010    1.0600    0.0000 C.3     1  UNL1       -0.0526
      5 C           7.7331    1.0600    0.0000 C.3     1  UNL1       -0.0522
      6 C           5.1350    0.5600    0.0000 C.3     1  UNL1       -0.0430
      7 C           8.5991    0.5600    0.0000 C.3     1  UNL1       -0.0422
      8 C          15.5273   -0.4400    0.0000 C.3     1  UNL1       -0.0528
      9 C          16.3933    0.0600    0.0000 C.3     1  UNL1       -0.0533
     10 C          14.6613    0.0600    0.0000 C.3     1  UNL1       -0.0496
     11 C           4.2690    1.0600    0.0000 C.3     1  UNL1        0.0448
     12 C          17.2594   -0.4400    0.0000 C.3     1  UNL1       -0.0559
     13 C           9.4651    1.0600    0.0000 C.3     1  UNL1        0.0095
     14 C          13.7953   -0.4400    0.0000 C.3     1  UNL1       -0.0339
     15 C          18.1254    0.0600    0.0000 C.3     1  UNL1       -0.0653
     16 C          12.9292    0.0600    0.0000 C.2     1  UNL1       -0.0758
     17 C           3.4030    0.5600    0.0000 C.2     1  UNL1        0.3047
     18 C          10.3312    0.5600    0.0000 C.1     1  UNL1       -0.0976
     19 C          12.0632   -0.4400    0.0000 C.2     1  UNL1       -0.0155
     20 C          11.1972    0.0600    0.0000 C.1     1  UNL1       -0.0744
     21 H           6.4685    0.0851    0.0000 H       1  UNL1        0.0265
     22 H           7.2656    0.0851    0.0000 H       1  UNL1        0.0265
     23 H           6.3996    1.5350    0.0000 H       1  UNL1        0.0265
     24 H           5.6025    1.5350    0.0000 H       1  UNL1        0.0265
     25 H           8.1316    1.5350    0.0000 H       1  UNL1        0.0266
     26 H           7.3346    1.5350    0.0000 H       1  UNL1        0.0266
     27 H           4.7365    0.0851    0.0000 H       1  UNL1        0.0270
     28 H           5.5335    0.0851    0.0000 H       1  UNL1        0.0270
     29 H           8.2006    0.0851    0.0000 H       1  UNL1        0.0274
     30 H           8.9976    0.0851    0.0000 H       1  UNL1        0.0274
     31 H          15.1288   -0.9149    0.0000 H       1  UNL1        0.0265
     32 H          15.9258   -0.9149    0.0000 H       1  UNL1        0.0265
     33 H          16.7919    0.5349    0.0000 H       1  UNL1        0.0265
     34 H          15.9948    0.5349    0.0000 H       1  UNL1        0.0265
     35 H          15.0598    0.5349    0.0000 H       1  UNL1        0.0268
     36 H          14.2628    0.5349    0.0000 H       1  UNL1        0.0268
     37 H           4.6675    1.5350    0.0000 H       1  UNL1        0.0377
     38 H           3.8705    1.5350    0.0000 H       1  UNL1        0.0377
     39 H          16.8608   -0.9149    0.0000 H       1  UNL1        0.0263
     40 H          17.6579   -0.9149    0.0000 H       1  UNL1        0.0263
     41 H           9.8637    1.5350    0.0000 H       1  UNL1        0.0397
     42 H           9.0666    1.5350    0.0000 H       1  UNL1        0.0397
     43 H          13.3967   -0.9149    0.0000 H       1  UNL1        0.0308
     44 H          14.1938   -0.9149    0.0000 H       1  UNL1        0.0308
     45 H          18.4354   -0.4769    0.0000 H       1  UNL1        0.0230
     46 H          18.6623    0.3700    0.0000 H       1  UNL1        0.0230
     47 H          17.8154    0.5969    0.0000 H       1  UNL1        0.0230
     48 H          12.9292    0.6800    0.0000 H       1  UNL1        0.0578
     49 H          12.0632   -1.0600    0.0000 H       1  UNL1        0.0709
     50 H           2.0000    0.7500    0.0000 H       1  UNL1        0.2951
@<TRIPOS>BOND
     1     1    17    1
     2     1    50    1
     3     2    17    2
     4     3     4    1
     5     3     5    1
     6     3    21    1
     7     3    22    1
     8     4     6    1
     9     4    23    1
    10     4    24    1
    11     5     7    1
    12     5    25    1
    13     5    26    1
    14     6    11    1
    15     6    27    1
    16     6    28    1
    17     7    13    1
    18     7    29    1
    19     7    30    1
    20     8     9    1
    21     8    10    1
    22     8    31    1
    23     8    32    1
    24     9    12    1
    25     9    33    1
    26     9    34    1
    27    10    14    1
    28    10    35    1
    29    10    36    1
    30    11    17    1
    31    11    37    1
    32    11    38    1
    33    12    15    1
    34    12    39    1
    35    12    40    1
    36    13    18    1
    37    13    41    1
    38    13    42    1
    39    14    16    1
    40    14    43    1
    41    14    44    1
    42    15    45    1
    43    15    46    1
    44    15    47    1
    45    16    19    2
    46    16    48    1
    47    18    20    3
    48    19    20    1
    49    19    49    1
