@<TRIPOS>MOLECULE
IMPHY013500
 25 26 0 0 0
SMALL
GASTEIGER

@<TRIPOS>ATOM
      1 O           5.4920   -1.1897    0.0000 O.2     1  UNL1       -0.4622
      2 O           3.7320    1.8450    0.0000 O.3     1  UNL1       -0.5055
      3 O           2.0000   -1.1550    0.0000 O.3     1  UNL1       -0.5060
      4 O           5.4804    1.8796    0.0000 O.2     1  UNL1       -0.2869
      5 C           4.5981    0.3450    0.0000 C.ar    1  UNL1        0.1059
      6 C           3.7320   -1.1550    0.0000 C.ar    1  UNL1        0.0343
      7 C           4.5981   -0.6550    0.0000 C.ar    1  UNL1        0.1483
      8 C           2.8660    0.3450    0.0000 C.ar    1  UNL1        0.0335
      9 C           3.7320    0.8450    0.0000 C.ar    1  UNL1        0.1376
     10 C           2.8660   -0.6550    0.0000 C.ar    1  UNL1        0.1296
     11 C           5.4920    0.8797    0.0000 C.ar    1  UNL1        0.1960
     12 C           3.7320   -2.1550    0.0000 C.3     1  UNL1       -0.0327
     13 C           2.0000    0.8450    0.0000 C.3     1  UNL1       -0.0327
     14 C           6.3981    0.3658    0.0000 C.ar    1  UNL1        0.0208
     15 C           6.3981   -0.6758    0.0000 C.ar    1  UNL1        0.0961
     16 H           3.1120   -2.1550    0.0000 H       1  UNL1        0.0280
     17 H           3.7320   -2.7750    0.0000 H       1  UNL1        0.0280
     18 H           4.3520   -2.1550    0.0000 H       1  UNL1        0.0280
     19 H           2.3100    1.3819    0.0000 H       1  UNL1        0.0280
     20 H           1.4631    1.1550    0.0000 H       1  UNL1        0.0280
     21 H           1.6900    0.3081    0.0000 H       1  UNL1        0.0280
     22 H           6.9338    0.6779    0.0000 H       1  UNL1        0.0687
     23 H           6.9338   -0.9879    0.0000 H       1  UNL1        0.1031
     24 H           3.1951    2.1550    0.0000 H       1  UNL1        0.2922
     25 H           2.0000   -1.7750    0.0000 H       1  UNL1        0.2922
@<TRIPOS>BOND
     1     1     7   ar
     2     1    15   ar
     3     2     9    1
     4     2    24    1
     5     3    10    1
     6     3    25    1
     7     4    11    2
     8     5     7   ar
     9     5     9   ar
    10     5    11   ar
    11     6     7   ar
    12     6    10   ar
    13     6    12    1
    14     8     9   ar
    15     8    10   ar
    16     8    13    1
    17    11    14   ar
    18    12    16    1
    19    12    17    1
    20    12    18    1
    21    13    19    1
    22    13    20    1
    23    13    21    1
    24    14    15   ar
    25    14    22    1
    26    15    23    1
