@<TRIPOS>MOLECULE
IMPHY016198
 24 24 0 0 0
SMALL
GASTEIGER

@<TRIPOS>ATOM
      1 C           3.7320    0.2500    0.0000 C.3     1  UNL1        0.0041
      2 C           4.5981   -0.2500    0.0000 C.3     1  UNL1       -0.0245
      3 C           2.8660   -0.2500    0.0000 C.2     1  UNL1       -0.0656
      4 C           2.8660   -1.2500    0.0000 C.3     1  UNL1       -0.0132
      5 C           3.7320    1.2500    0.0000 C.2     1  UNL1       -0.0723
      6 C           4.5981   -1.2500    0.0000 C.2     1  UNL1       -0.0868
      7 C           3.7320   -1.7500    0.0000 C.2     1  UNL1       -0.0839
      8 C           4.5981    1.7500    0.0000 C.3     1  UNL1       -0.0435
      9 C           2.0000    0.2500    0.0000 C.2     1  UNL1       -0.0986
     10 C           2.8660    1.7500    0.0000 C.2     1  UNL1       -0.0991
     11 H           4.2690    0.5600    0.0000 H       1  UNL1        0.0394
     12 H           5.2087   -0.3577    0.0000 H       1  UNL1        0.0316
     13 H           4.8101    0.3326    0.0000 H       1  UNL1        0.0316
     14 H           2.2554   -1.1423    0.0000 H       1  UNL1        0.0352
     15 H           2.6540   -1.8326    0.0000 H       1  UNL1        0.0352
     16 H           5.1350   -1.5600    0.0000 H       1  UNL1        0.0569
     17 H           3.7320   -2.3700    0.0000 H       1  UNL1        0.0572
     18 H           4.9081    1.2131    0.0000 H       1  UNL1        0.0274
     19 H           5.1350    2.0600    0.0000 H       1  UNL1        0.0274
     20 H           4.2881    2.2869    0.0000 H       1  UNL1        0.0274
     21 H           2.0000    0.8700    0.0000 H       1  UNL1        0.0535
     22 H           1.4631   -0.0600    0.0000 H       1  UNL1        0.0535
     23 H           2.8660    2.3700    0.0000 H       1  UNL1        0.0534
     24 H           2.3291    1.4400    0.0000 H       1  UNL1        0.0534
@<TRIPOS>BOND
     1     1     2    1
     2     1     3    1
     3     1     5    1
     4     1    11    1
     5     2     6    1
     6     2    12    1
     7     2    13    1
     8     3     4    1
     9     3     9    2
    10     4     7    1
    11     4    14    1
    12     4    15    1
    13     5     8    1
    14     5    10    2
    15     6     7    2
    16     6    16    1
    17     7    17    1
    18     8    18    1
    19     8    19    1
    20     8    20    1
    21     9    21    1
    22     9    22    1
    23    10    23    1
    24    10    24    1
