@<TRIPOS>MOLECULE
IMPHY013543
 41 42 0 0 0
SMALL
GASTEIGER

@<TRIPOS>ATOM
      1 O           2.8660    1.2500    0.0000 O.2     1  UNL1       -0.2924
      2 O           9.3306   -1.4820    0.0000 O.3     1  UNL1       -0.3921
      3 C           5.4641    0.7500    0.0000 C.3     1  UNL1       -0.0186
      4 C           5.4641   -0.2500    0.0000 C.3     1  UNL1       -0.0275
      5 C           6.3306    0.2500    0.0000 C.3     1  UNL1       -0.0312
      6 C           4.5981    1.2500    0.0000 C.3     1  UNL1        0.0161
      7 C           4.5981   -0.7500    0.0000 C.3     1  UNL1       -0.0208
      8 C           7.3306    0.2500    0.0000 C.3     1  UNL1       -0.0471
      9 C           5.4641    1.7500    0.0000 C.3     1  UNL1       -0.0586
     10 C           3.7320   -0.2500    0.0000 C.2     1  UNL1       -0.0060
     11 C           3.7320    0.7500    0.0000 C.2     1  UNL1        0.1597
     12 C           7.8306   -0.6160    0.0000 C.3     1  UNL1       -0.0268
     13 C           2.8660   -0.7500    0.0000 C.2     1  UNL1       -0.0692
     14 C           8.8306   -0.6160    0.0000 C.3     1  UNL1        0.0525
     15 C           2.8660   -1.7500    0.0000 C.3     1  UNL1       -0.0434
     16 C           2.0000   -0.2500    0.0000 C.3     1  UNL1       -0.0434
     17 C           9.3306    0.2500    0.0000 C.3     1  UNL1       -0.0389
     18 H           5.7740   -0.7870    0.0000 H       1  UNL1        0.0312
     19 H           6.4910   -0.3489    0.0000 H       1  UNL1        0.0309
     20 H           4.9966    1.7250    0.0000 H       1  UNL1        0.0350
     21 H           4.1996    1.7250    0.0000 H       1  UNL1        0.0350
     22 H           4.1996   -1.2250    0.0000 H       1  UNL1        0.0317
     23 H           4.9966   -1.2250    0.0000 H       1  UNL1        0.0317
     24 H           7.9132    0.4621    0.0000 H       1  UNL1        0.0269
     25 H           7.2230    0.8606    0.0000 H       1  UNL1        0.0269
     26 H           6.0841    1.7500    0.0000 H       1  UNL1        0.0235
     27 H           5.4641    2.3700    0.0000 H       1  UNL1        0.0235
     28 H           4.8441    1.7500    0.0000 H       1  UNL1        0.0235
     29 H           7.2480   -0.8281    0.0000 H       1  UNL1        0.0290
     30 H           7.9383   -1.2266    0.0000 H       1  UNL1        0.0290
     31 H           8.5206   -1.1530    0.0000 H       1  UNL1        0.0590
     32 H           2.2460   -1.7500    0.0000 H       1  UNL1        0.0274
     33 H           2.8660   -2.3700    0.0000 H       1  UNL1        0.0274
     34 H           3.4860   -1.7500    0.0000 H       1  UNL1        0.0274
     35 H           2.3100    0.2869    0.0000 H       1  UNL1        0.0274
     36 H           1.4631    0.0600    0.0000 H       1  UNL1        0.0274
     37 H           1.6900   -0.7869    0.0000 H       1  UNL1        0.0274
     38 H           9.8676   -0.0600    0.0000 H       1  UNL1        0.0254
     39 H           9.6406    0.7869    0.0000 H       1  UNL1        0.0254
     40 H           8.7937    0.5600    0.0000 H       1  UNL1        0.0254
     41 H           9.9506   -1.4820    0.0000 H       1  UNL1        0.2098
@<TRIPOS>BOND
     1     1    11    2
     2     2    14    1
     3     2    41    1
     4     3     4    1
     5     3     5    1
     6     3     6    1
     7     3     9    1
     8     4     5    1
     9     4     7    1
    10     4    18    1
    11     5     8    1
    12     5    19    1
    13     6    11    1
    14     6    20    1
    15     6    21    1
    16     7    10    1
    17     7    22    1
    18     7    23    1
    19     8    12    1
    20     8    24    1
    21     8    25    1
    22     9    26    1
    23     9    27    1
    24     9    28    1
    25    10    11    1
    26    10    13    2
    27    12    14    1
    28    12    29    1
    29    12    30    1
    30    13    15    1
    31    13    16    1
    32    14    17    1
    33    14    31    1
    34    15    32    1
    35    15    33    1
    36    15    34    1
    37    16    35    1
    38    16    36    1
    39    16    37    1
    40    17    38    1
    41    17    39    1
    42    17    40    1
