@<TRIPOS>MOLECULE
IMPHY001965
 118 119 0 0 0
SMALL
GASTEIGER

@<TRIPOS>ATOM
      1 O          16.7224    9.5000    0.0000 O.3     1  UNL1       -0.4616
      2 O           6.3301   -9.5000    0.0000 O.3     1  UNL1       -0.4616
      3 O          18.4545    9.5000    0.0000 O.2     1  UNL1       -0.2456
      4 O           4.5981   -9.5000    0.0000 O.2     1  UNL1       -0.2456
      5 O          20.1865   14.5000    0.0000 O.3     1  UNL1       -0.4914
      6 O           2.8660  -14.5000    0.0000 O.3     1  UNL1       -0.4914
      7 O          18.4545   15.5000    0.0000 O.3     1  UNL1       -0.5033
      8 O           4.5981  -15.5000    0.0000 O.3     1  UNL1       -0.5033
      9 C          11.5263    0.5000    0.0000 C.3     1  UNL1       -0.0531
     10 C          11.5263   -0.5000    0.0000 C.3     1  UNL1       -0.0531
     11 C          10.6603   -1.0000    0.0000 C.3     1  UNL1       -0.0531
     12 C          12.3923    1.0000    0.0000 C.3     1  UNL1       -0.0531
     13 C          12.3923    2.0000    0.0000 C.3     1  UNL1       -0.0531
     14 C          10.6603   -2.0000    0.0000 C.3     1  UNL1       -0.0531
     15 C          13.2583    2.5000    0.0000 C.3     1  UNL1       -0.0531
     16 C           9.7942   -2.5000    0.0000 C.3     1  UNL1       -0.0531
     17 C          13.2583    3.5000    0.0000 C.3     1  UNL1       -0.0531
     18 C           9.7942   -3.5000    0.0000 C.3     1  UNL1       -0.0531
     19 C          14.1244    4.0000    0.0000 C.3     1  UNL1       -0.0531
     20 C           8.9282   -4.0000    0.0000 C.3     1  UNL1       -0.0531
     21 C          14.1244    5.0000    0.0000 C.3     1  UNL1       -0.0531
     22 C           8.9282   -5.0000    0.0000 C.3     1  UNL1       -0.0531
     23 C          14.9904    5.5000    0.0000 C.3     1  UNL1       -0.0531
     24 C           8.0622   -5.5000    0.0000 C.3     1  UNL1       -0.0531
     25 C           8.0622   -6.5000    0.0000 C.3     1  UNL1       -0.0530
     26 C          14.9904    6.5000    0.0000 C.3     1  UNL1       -0.0530
     27 C          15.8564    7.0000    0.0000 C.3     1  UNL1       -0.0500
     28 C           7.1962   -7.0000    0.0000 C.3     1  UNL1       -0.0500
     29 C          15.8564    8.0000    0.0000 C.3     1  UNL1       -0.0185
     30 C           7.1962   -8.0000    0.0000 C.3     1  UNL1       -0.0185
     31 C          16.7224    8.5000    0.0000 C.3     1  UNL1        0.0928
     32 C           6.3301   -8.5000    0.0000 C.3     1  UNL1        0.0928
     33 C          17.5885   10.0000    0.0000 C.2     1  UNL1        0.3319
     34 C           5.4641  -10.0000    0.0000 C.2     1  UNL1        0.3319
     35 C          17.5885   11.0000    0.0000 C.2     1  UNL1        0.0231
     36 C           5.4641  -11.0000    0.0000 C.2     1  UNL1        0.0231
     37 C          18.4545   11.5000    0.0000 C.2     1  UNL1       -0.0477
     38 C           4.5981  -11.5000    0.0000 C.2     1  UNL1       -0.0477
     39 C           4.5981  -12.5000    0.0000 C.ar    1  UNL1       -0.0211
     40 C          18.4545   12.5000    0.0000 C.ar    1  UNL1       -0.0211
     41 C          19.3205   13.0000    0.0000 C.ar    1  UNL1       -0.0092
     42 C           3.7320  -13.0000    0.0000 C.ar    1  UNL1       -0.0092
     43 C          17.5885   13.0000    0.0000 C.ar    1  UNL1       -0.0509
     44 C           5.4641  -13.0000    0.0000 C.ar    1  UNL1       -0.0509
     45 C          19.3205   14.0000    0.0000 C.ar    1  UNL1        0.1618
     46 C           3.7320  -14.0000    0.0000 C.ar    1  UNL1        0.1618
     47 C          17.5885   14.0000    0.0000 C.ar    1  UNL1       -0.0160
     48 C           5.4641  -14.0000    0.0000 C.ar    1  UNL1       -0.0160
     49 C          18.4545   14.5000    0.0000 C.ar    1  UNL1        0.1585
     50 C           4.5981  -14.5000    0.0000 C.ar    1  UNL1        0.1585
     51 C          21.0526   14.0000    0.0000 C.3     1  UNL1        0.0790
     52 C           2.0000  -14.0000    0.0000 C.3     1  UNL1        0.0790
     53 H          11.3142    1.0826    0.0000 H       1  UNL1        0.0265
     54 H          10.9157    0.3923    0.0000 H       1  UNL1        0.0265
     55 H          11.7383   -1.0826    0.0000 H       1  UNL1        0.0265
     56 H          12.1369   -0.3923    0.0000 H       1  UNL1        0.0265
     57 H          10.4482   -0.4174    0.0000 H       1  UNL1        0.0265
     58 H          10.0497   -1.1077    0.0000 H       1  UNL1        0.0265
     59 H          12.6044    0.4174    0.0000 H       1  UNL1        0.0265
     60 H          13.0029    1.1077    0.0000 H       1  UNL1        0.0265
     61 H          12.1803    2.5826    0.0000 H       1  UNL1        0.0265
     62 H          11.7817    1.8923    0.0000 H       1  UNL1        0.0265
     63 H          10.8723   -2.5826    0.0000 H       1  UNL1        0.0265
     64 H          11.2708   -1.8923    0.0000 H       1  UNL1        0.0265
     65 H           9.5822   -1.9174    0.0000 H       1  UNL1        0.0265
     66 H           9.1836   -2.6077    0.0000 H       1  UNL1        0.0265
     67 H          13.4704    1.9174    0.0000 H       1  UNL1        0.0265
     68 H          13.8689    2.6077    0.0000 H       1  UNL1        0.0265
     69 H          13.0463    4.0826    0.0000 H       1  UNL1        0.0265
     70 H          12.6477    3.3923    0.0000 H       1  UNL1        0.0265
     71 H          10.0063   -4.0826    0.0000 H       1  UNL1        0.0265
     72 H          10.4048   -3.3923    0.0000 H       1  UNL1        0.0265
     73 H          14.3364    3.4174    0.0000 H       1  UNL1        0.0265
     74 H          14.7349    4.1077    0.0000 H       1  UNL1        0.0265
     75 H           8.7162   -3.4174    0.0000 H       1  UNL1        0.0265
     76 H           8.3176   -4.1077    0.0000 H       1  UNL1        0.0265
     77 H          13.9123    5.5826    0.0000 H       1  UNL1        0.0265
     78 H          13.5138    4.8923    0.0000 H       1  UNL1        0.0265
     79 H           9.1403   -5.5826    0.0000 H       1  UNL1        0.0265
     80 H           9.5388   -4.8923    0.0000 H       1  UNL1        0.0265
     81 H           7.8501   -4.9174    0.0000 H       1  UNL1        0.0265
     82 H           7.4516   -5.6077    0.0000 H       1  UNL1        0.0265
     83 H          15.2024    4.9174    0.0000 H       1  UNL1        0.0265
     84 H          15.6010    5.6077    0.0000 H       1  UNL1        0.0265
     85 H          14.7783    7.0826    0.0000 H       1  UNL1        0.0265
     86 H          14.3798    6.3923    0.0000 H       1  UNL1        0.0265
     87 H           8.2742   -7.0826    0.0000 H       1  UNL1        0.0265
     88 H           8.6728   -6.3923    0.0000 H       1  UNL1        0.0265
     89 H          16.0685    6.4174    0.0000 H       1  UNL1        0.0266
     90 H          16.4670    7.1077    0.0000 H       1  UNL1        0.0266
     91 H           6.9841   -6.4174    0.0000 H       1  UNL1        0.0266
     92 H           6.5856   -7.1077    0.0000 H       1  UNL1        0.0266
     93 H          15.6444    8.5826    0.0000 H       1  UNL1        0.0298
     94 H          15.2458    7.8923    0.0000 H       1  UNL1        0.0298
     95 H           7.4082   -8.5826    0.0000 H       1  UNL1        0.0298
     96 H           7.8067   -7.8923    0.0000 H       1  UNL1        0.0298
     97 H          16.9345    7.9174    0.0000 H       1  UNL1        0.0697
     98 H          17.3330    8.6077    0.0000 H       1  UNL1        0.0697
     99 H           6.1181   -7.9174    0.0000 H       1  UNL1        0.0697
    100 H           5.7196   -8.6077    0.0000 H       1  UNL1        0.0697
    101 H          17.0515   11.3100    0.0000 H       1  UNL1        0.0689
    102 H           6.0010  -11.3100    0.0000 H       1  UNL1        0.0689
    103 H          18.9914   11.1900    0.0000 H       1  UNL1        0.0626
    104 H           4.0611  -11.1900    0.0000 H       1  UNL1        0.0626
    105 H          19.8574   12.6900    0.0000 H       1  UNL1        0.0661
    106 H           3.1951  -12.6900    0.0000 H       1  UNL1        0.0661
    107 H          17.0515   12.6900    0.0000 H       1  UNL1        0.0625
    108 H           6.0010  -12.6900    0.0000 H       1  UNL1        0.0625
    109 H          17.0515   14.3100    0.0000 H       1  UNL1        0.0655
    110 H           6.0010  -14.3100    0.0000 H       1  UNL1        0.0655
    111 H          17.9175   15.8100    0.0000 H       1  UNL1        0.2923
    112 H           5.1350  -15.8100    0.0000 H       1  UNL1        0.2923
    113 H           2.3100  -13.4631    0.0000 H       1  UNL1        0.0660
    114 H           1.4631  -13.6900    0.0000 H       1  UNL1        0.0660
    115 H           1.6900  -14.5369    0.0000 H       1  UNL1        0.0660
    116 H          20.7426   13.4631    0.0000 H       1  UNL1        0.0660
    117 H          21.5895   13.6900    0.0000 H       1  UNL1        0.0660
    118 H          21.3626   14.5369    0.0000 H       1  UNL1        0.0660
@<TRIPOS>BOND
     1     1    31    1
     2     1    33    1
     3     2    32    1
     4     2    34    1
     5     3    33    2
     6     4    34    2
     7     5    45    1
     8     5    51    1
     9     6    46    1
    10     6    52    1
    11     7    49    1
    12     7   111    1
    13     8    50    1
    14     8   112    1
    15     9    10    1
    16     9    12    1
    17     9    53    1
    18     9    54    1
    19    10    11    1
    20    10    55    1
    21    10    56    1
    22    11    14    1
    23    11    57    1
    24    11    58    1
    25    12    13    1
    26    12    59    1
    27    12    60    1
    28    13    15    1
    29    13    61    1
    30    13    62    1
    31    14    16    1
    32    14    63    1
    33    14    64    1
    34    15    17    1
    35    15    67    1
    36    15    68    1
    37    16    18    1
    38    16    65    1
    39    16    66    1
    40    17    19    1
    41    17    69    1
    42    17    70    1
    43    18    20    1
    44    18    71    1
    45    18    72    1
    46    19    21    1
    47    19    73    1
    48    19    74    1
    49    20    22    1
    50    20    75    1
    51    20    76    1
    52    21    23    1
    53    21    77    1
    54    21    78    1
    55    22    24    1
    56    22    79    1
    57    22    80    1
    58    23    26    1
    59    23    83    1
    60    23    84    1
    61    24    25    1
    62    24    81    1
    63    24    82    1
    64    25    28    1
    65    25    87    1
    66    25    88    1
    67    26    27    1
    68    26    85    1
    69    26    86    1
    70    27    29    1
    71    27    89    1
    72    27    90    1
    73    28    30    1
    74    28    91    1
    75    28    92    1
    76    29    31    1
    77    29    93    1
    78    29    94    1
    79    30    32    1
    80    30    95    1
    81    30    96    1
    82    31    97    1
    83    31    98    1
    84    32    99    1
    85    32   100    1
    86    33    35    1
    87    34    36    1
    88    35    37    2
    89    35   101    1
    90    36    38    2
    91    36   102    1
    92    37    40    1
    93    37   103    1
    94    38    39    1
    95    38   104    1
    96    39    42   ar
    97    39    44   ar
    98    40    41   ar
    99    40    43   ar
   100    41    45   ar
   101    41   105    1
   102    42    46   ar
   103    42   106    1
   104    43    47   ar
   105    43   107    1
   106    44    48   ar
   107    44   108    1
   108    45    49   ar
   109    46    50   ar
   110    47    49   ar
   111    47   109    1
   112    48    50   ar
   113    48   110    1
   114    51   116    1
   115    51   117    1
   116    51   118    1
   117    52   113    1
   118    52   114    1
   119    52   115    1
