@<TRIPOS>MOLECULE
IMPHY013668
 103 103 0 0 0
SMALL
GASTEIGER

@<TRIPOS>ATOM
      1 O           3.3660    4.1340    0.0000 O.3     1  UNL1       -0.3653
      2 C           2.8660    5.0000    0.0000 C.3     1  UNL1        0.0904
      3 C           3.8660    5.0000    0.0000 C.3     1  UNL1        0.0881
      4 C           4.7320    5.5000    0.0000 C.3     1  UNL1       -0.0202
      5 C           2.8660    6.0000    0.0000 C.3     1  UNL1       -0.0336
      6 C           2.0000    4.5000    0.0000 C.3     1  UNL1       -0.0336
      7 C           5.5981    5.0000    0.0000 C.3     1  UNL1       -0.0296
      8 C           6.4641    5.5000    0.0000 C.2     1  UNL1       -0.0764
      9 C           6.4641    6.5000    0.0000 C.3     1  UNL1       -0.0438
     10 C           7.3301    5.0000    0.0000 C.2     1  UNL1       -0.0847
     11 C           8.1962    5.5000    0.0000 C.3     1  UNL1       -0.0308
     12 C           9.0622    5.0000    0.0000 C.3     1  UNL1       -0.0283
     13 C           9.9282    5.5000    0.0000 C.2     1  UNL1       -0.0723
     14 C           9.9282    6.5000    0.0000 C.3     1  UNL1       -0.0435
     15 C          10.7942    5.0000    0.0000 C.2     1  UNL1       -0.0628
     16 C          11.6603    5.5000    0.0000 C.2     1  UNL1       -0.0616
     17 C          12.5263    5.0000    0.0000 C.2     1  UNL1       -0.0588
     18 C          18.5885   -0.5000    0.0000 C.3     1  UNL1       -0.0286
     19 C          19.4545   -1.0000    0.0000 C.3     1  UNL1       -0.0308
     20 C          18.5885    0.5000    0.0000 C.2     1  UNL1       -0.0762
     21 C          20.3205   -2.5000    0.0000 C.2     1  UNL1       -0.0762
     22 C          20.3205   -3.5000    0.0000 C.3     1  UNL1       -0.0286
     23 C          19.4545   -2.0000    0.0000 C.2     1  UNL1       -0.0847
     24 C          17.7224    2.0000    0.0000 C.3     1  UNL1       -0.0308
     25 C          12.5263    4.0000    0.0000 C.2     1  UNL1       -0.0504
     26 C          17.7224    1.0000    0.0000 C.2     1  UNL1       -0.0847
     27 C          16.8564    2.5000    0.0000 C.3     1  UNL1       -0.0283
     28 C          21.1865   -4.0000    0.0000 C.3     1  UNL1       -0.0308
     29 C          19.4545    1.0000    0.0000 C.3     1  UNL1       -0.0438
     30 C          16.8564    3.5000    0.0000 C.2     1  UNL1       -0.0723
     31 C          21.1865   -2.0000    0.0000 C.3     1  UNL1       -0.0438
     32 C          21.1865   -5.0000    0.0000 C.2     1  UNL1       -0.0850
     33 C          13.3923    3.5000    0.0000 C.2     1  UNL1       -0.0588
     34 C          11.6603    3.5000    0.0000 C.3     1  UNL1       -0.0397
     35 C          15.9904    4.0000    0.0000 C.2     1  UNL1       -0.0628
     36 C          17.7224    4.0000    0.0000 C.3     1  UNL1       -0.0435
     37 C          22.0526   -5.5000    0.0000 C.2     1  UNL1       -0.0796
     38 C          14.2583    4.0000    0.0000 C.2     1  UNL1       -0.0615
     39 C          15.1244    3.5000    0.0000 C.2     1  UNL1       -0.0618
     40 C          22.0526   -6.5000    0.0000 C.3     1  UNL1       -0.0440
     41 C          22.9186   -5.0000    0.0000 C.3     1  UNL1       -0.0440
     42 H           4.3044    4.5616    0.0000 H       1  UNL1        0.0625
     43 H           5.1306    5.9750    0.0000 H       1  UNL1        0.0294
     44 H           4.3335    5.9750    0.0000 H       1  UNL1        0.0294
     45 H           3.4860    6.0000    0.0000 H       1  UNL1        0.0258
     46 H           2.8660    6.6200    0.0000 H       1  UNL1        0.0258
     47 H           2.2460    6.0000    0.0000 H       1  UNL1        0.0258
     48 H           1.6900    5.0369    0.0000 H       1  UNL1        0.0258
     49 H           1.4631    4.1900    0.0000 H       1  UNL1        0.0258
     50 H           2.3100    3.9631    0.0000 H       1  UNL1        0.0258
     51 H           5.1996    4.5250    0.0000 H       1  UNL1        0.0311
     52 H           5.9966    4.5250    0.0000 H       1  UNL1        0.0311
     53 H           7.0841    6.5000    0.0000 H       1  UNL1        0.0274
     54 H           6.4641    7.1200    0.0000 H       1  UNL1        0.0274
     55 H           5.8441    6.5000    0.0000 H       1  UNL1        0.0274
     56 H           7.3301    4.3800    0.0000 H       1  UNL1        0.0572
     57 H           8.5947    5.9750    0.0000 H       1  UNL1        0.0310
     58 H           7.7976    5.9750    0.0000 H       1  UNL1        0.0310
     59 H           8.6636    4.5250    0.0000 H       1  UNL1        0.0313
     60 H           9.4607    4.5250    0.0000 H       1  UNL1        0.0313
     61 H          10.5482    6.5000    0.0000 H       1  UNL1        0.0274
     62 H           9.9282    7.1200    0.0000 H       1  UNL1        0.0274
     63 H           9.3082    6.5000    0.0000 H       1  UNL1        0.0274
     64 H          10.7942    4.3800    0.0000 H       1  UNL1        0.0617
     65 H          11.6603    6.1200    0.0000 H       1  UNL1        0.0618
     66 H          13.0632    5.3100    0.0000 H       1  UNL1        0.0620
     67 H          17.9779   -0.3923    0.0000 H       1  UNL1        0.0313
     68 H          18.3764   -1.0826    0.0000 H       1  UNL1        0.0313
     69 H          20.0651   -1.1077    0.0000 H       1  UNL1        0.0310
     70 H          19.6665   -0.4174    0.0000 H       1  UNL1        0.0310
     71 H          19.7099   -3.3923    0.0000 H       1  UNL1        0.0313
     72 H          20.1085   -4.0826    0.0000 H       1  UNL1        0.0313
     73 H          18.9175   -2.3100    0.0000 H       1  UNL1        0.0572
     74 H          18.3330    1.8923    0.0000 H       1  UNL1        0.0310
     75 H          17.9345    2.5826    0.0000 H       1  UNL1        0.0310
     76 H          17.1855    0.6900    0.0000 H       1  UNL1        0.0572
     77 H          16.2458    2.6077    0.0000 H       1  UNL1        0.0313
     78 H          16.6444    1.9174    0.0000 H       1  UNL1        0.0313
     79 H          21.7971   -4.1077    0.0000 H       1  UNL1        0.0310
     80 H          21.3986   -3.4174    0.0000 H       1  UNL1        0.0310
     81 H          19.7645    0.4631    0.0000 H       1  UNL1        0.0274
     82 H          19.9914    1.3100    0.0000 H       1  UNL1        0.0274
     83 H          19.1445    1.5369    0.0000 H       1  UNL1        0.0274
     84 H          21.4965   -2.5369    0.0000 H       1  UNL1        0.0274
     85 H          21.7235   -1.6900    0.0000 H       1  UNL1        0.0274
     86 H          20.8765   -1.4631    0.0000 H       1  UNL1        0.0274
     87 H          20.6496   -5.3100    0.0000 H       1  UNL1        0.0572
     88 H          13.3923    2.8800    0.0000 H       1  UNL1        0.0620
     89 H          11.3503    4.0369    0.0000 H       1  UNL1        0.0278
     90 H          11.1233    3.1900    0.0000 H       1  UNL1        0.0278
     91 H          11.9703    2.9631    0.0000 H       1  UNL1        0.0278
     92 H          15.9904    4.6200    0.0000 H       1  UNL1        0.0617
     93 H          18.0324    3.4631    0.0000 H       1  UNL1        0.0274
     94 H          18.2594    4.3100    0.0000 H       1  UNL1        0.0274
     95 H          17.4124    4.5369    0.0000 H       1  UNL1        0.0274
     96 H          14.2583    4.6200    0.0000 H       1  UNL1        0.0618
     97 H          15.1244    2.8800    0.0000 H       1  UNL1        0.0618
     98 H          21.4326   -6.5000    0.0000 H       1  UNL1        0.0274
     99 H          22.0526   -7.1200    0.0000 H       1  UNL1        0.0274
    100 H          22.6726   -6.5000    0.0000 H       1  UNL1        0.0274
    101 H          23.2286   -5.5369    0.0000 H       1  UNL1        0.0274
    102 H          23.4555   -4.6900    0.0000 H       1  UNL1        0.0274
    103 H          22.6086   -4.4631    0.0000 H       1  UNL1        0.0274
@<TRIPOS>BOND
     1     1     2    1
     2     1     3    1
     3     2     3    1
     4     2     5    1
     5     2     6    1
     6     3     4    1
     7     3    42    1
     8     4     7    1
     9     4    43    1
    10     4    44    1
    11     5    45    1
    12     5    46    1
    13     5    47    1
    14     6    48    1
    15     6    49    1
    16     6    50    1
    17     7     8    1
    18     7    51    1
    19     7    52    1
    20     8     9    1
    21     8    10    2
    22     9    53    1
    23     9    54    1
    24     9    55    1
    25    10    11    1
    26    10    56    1
    27    11    12    1
    28    11    57    1
    29    11    58    1
    30    12    13    1
    31    12    59    1
    32    12    60    1
    33    13    14    1
    34    13    15    2
    35    14    61    1
    36    14    62    1
    37    14    63    1
    38    15    16    1
    39    15    64    1
    40    16    17    2
    41    16    65    1
    42    17    25    1
    43    17    66    1
    44    18    19    1
    45    18    20    1
    46    18    67    1
    47    18    68    1
    48    19    23    1
    49    19    69    1
    50    19    70    1
    51    20    26    2
    52    20    29    1
    53    21    22    1
    54    21    23    2
    55    21    31    1
    56    22    28    1
    57    22    71    1
    58    22    72    1
    59    23    73    1
    60    24    26    1
    61    24    27    1
    62    24    74    1
    63    24    75    1
    64    25    33    2
    65    25    34    1
    66    26    76    1
    67    27    30    1
    68    27    77    1
    69    27    78    1
    70    28    32    1
    71    28    79    1
    72    28    80    1
    73    29    81    1
    74    29    82    1
    75    29    83    1
    76    30    35    2
    77    30    36    1
    78    31    84    1
    79    31    85    1
    80    31    86    1
    81    32    37    2
    82    32    87    1
    83    33    38    1
    84    33    88    1
    85    34    89    1
    86    34    90    1
    87    34    91    1
    88    35    39    1
    89    35    92    1
    90    36    93    1
    91    36    94    1
    92    36    95    1
    93    37    40    1
    94    37    41    1
    95    38    39    2
    96    38    96    1
    97    39    97    1
    98    40    98    1
    99    40    99    1
   100    40   100    1
   101    41   101    1
   102    41   102    1
   103    41   103    1
