@<TRIPOS>MOLECULE
IMPHY006964
 16 15 0 0 0
SMALL
GASTEIGER

@<TRIPOS>ATOM
      1 N           3.7320    0.0600    0.0000 N.3     1  UNL1       -0.3165
      2 C           4.5981    0.5600    0.0000 C.3     1  UNL1       -0.0070
      3 C           2.8660    0.5600    0.0000 C.3     1  UNL1       -0.0070
      4 C           5.4641    0.0600    0.0000 C.3     1  UNL1       -0.0526
      5 C           2.0000    0.0600    0.0000 C.3     1  UNL1       -0.0526
      6 H           4.9966    1.0350    0.0000 H       1  UNL1        0.0421
      7 H           4.1996    1.0350    0.0000 H       1  UNL1        0.0421
      8 H           3.2646    1.0350    0.0000 H       1  UNL1        0.0421
      9 H           2.4675    1.0350    0.0000 H       1  UNL1        0.0421
     10 H           3.7320   -0.5600    0.0000 H       1  UNL1        0.1219
     11 H           5.1541   -0.4769    0.0000 H       1  UNL1        0.0242
     12 H           6.0010   -0.2500    0.0000 H       1  UNL1        0.0242
     13 H           5.7741    0.5969    0.0000 H       1  UNL1        0.0242
     14 H           1.6900    0.5969    0.0000 H       1  UNL1        0.0242
     15 H           1.4631   -0.2500    0.0000 H       1  UNL1        0.0242
     16 H           2.3100   -0.4769    0.0000 H       1  UNL1        0.0242
@<TRIPOS>BOND
     1     1     2    1
     2     1     3    1
     3     1    10    1
     4     2     4    1
     5     2     6    1
     6     2     7    1
     7     3     5    1
     8     3     8    1
     9     3     9    1
    10     4    11    1
    11     4    12    1
    12     4    13    1
    13     5    14    1
    14     5    15    1
    15     5    16    1
