@<TRIPOS>MOLECULE
IMPHY001116
 87 89 0 0 0
SMALL
GASTEIGER

@<TRIPOS>ATOM
      1 O           8.5991   -2.8450    0.0000 O.3     1  UNL1       -0.3405
      2 O          10.3312   -2.8450    0.0000 O.3     1  UNL1       -0.3460
      3 O          11.1972   -0.3450    0.0000 O.3     1  UNL1       -0.3405
      4 O           6.8671   -1.8450    0.0000 O.3     1  UNL1       -0.3460
      5 O           5.1350   -1.8450    0.0000 O.3     1  UNL1       -0.3405
      6 O           6.8671   -4.8450    0.0000 O.3     1  UNL1       -0.3865
      7 O           8.5991   -5.8450    0.0000 O.3     1  UNL1       -0.3864
      8 O          10.3312   -4.8450    0.0000 O.3     1  UNL1       -0.3841
      9 O          12.0632    1.1550    0.0000 O.3     1  UNL1       -0.3461
     10 O          12.0632   -2.8450    0.0000 O.3     1  UNL1       -0.3865
     11 O          13.7953   -1.8450    0.0000 O.3     1  UNL1       -0.3864
     12 O          13.7953    0.1550    0.0000 O.3     1  UNL1       -0.3841
     13 O           6.8671    0.1550    0.0000 O.3     1  UNL1       -0.3841
     14 O           5.1350    1.1550    0.0000 O.3     1  UNL1       -0.3864
     15 O           3.4030    0.1550    0.0000 O.3     1  UNL1       -0.3865
     16 O           2.5369   -1.3450    0.0000 O.3     1  UNL1       -0.3924
     17 O          12.0632    3.1550    0.0000 O.3     1  UNL1       -0.3869
     18 O           9.4651    2.6550    0.0000 O.3     1  UNL1       -0.3865
     19 O          11.1972    4.6550    0.0000 O.3     1  UNL1       -0.3861
     20 O           8.5991    4.1550    0.0000 O.3     1  UNL1       -0.3819
     21 O           8.5991    6.1550    0.0000 O.2     1  UNL1       -0.2982
     22 C           7.7331   -3.3450    0.0000 C.3     1  UNL1        0.1134
     23 C           7.7331   -4.3450    0.0000 C.3     1  UNL1        0.1119
     24 C           8.5991   -4.8450    0.0000 C.3     1  UNL1        0.1141
     25 C           9.4651   -4.3450    0.0000 C.3     1  UNL1        0.1341
     26 C           9.4651   -3.3450    0.0000 C.3     1  UNL1        0.1880
     27 C          11.1972   -1.3450    0.0000 C.3     1  UNL1        0.1134
     28 C          12.0632   -1.8450    0.0000 C.3     1  UNL1        0.1119
     29 C          12.9292   -1.3450    0.0000 C.3     1  UNL1        0.1141
     30 C          12.9292   -0.3450    0.0000 C.3     1  UNL1        0.1341
     31 C           6.8671   -2.8450    0.0000 C.3     1  UNL1        0.0796
     32 C          10.3312   -1.8450    0.0000 C.3     1  UNL1        0.0796
     33 C          12.0632    0.1550    0.0000 C.3     1  UNL1        0.1880
     34 C           6.0010   -1.3450    0.0000 C.3     1  UNL1        0.1880
     35 C           6.0010   -0.3450    0.0000 C.3     1  UNL1        0.1341
     36 C           5.1350    0.1550    0.0000 C.3     1  UNL1        0.1141
     37 C           4.2690   -0.3450    0.0000 C.3     1  UNL1        0.1119
     38 C           4.2690   -1.3450    0.0000 C.3     1  UNL1        0.1130
     39 C           3.4030   -1.8450    0.0000 C.3     1  UNL1        0.0730
     40 C          11.1972    1.6550    0.0000 C.3     1  UNL1        0.0792
     41 C          11.1972    2.6550    0.0000 C.3     1  UNL1        0.1069
     42 C          10.3312    3.1550    0.0000 C.3     1  UNL1        0.1118
     43 C          10.3312    4.1550    0.0000 C.3     1  UNL1        0.1159
     44 C           9.4651    4.6550    0.0000 C.3     1  UNL1        0.1381
     45 C           9.4651    5.6550    0.0000 C.2     1  UNL1        0.1512
     46 H           7.7331   -2.7250    0.0000 H       1  UNL1        0.0647
     47 H           7.7331   -4.9650    0.0000 H       1  UNL1        0.0647
     48 H           9.1360   -5.1550    0.0000 H       1  UNL1        0.0648
     49 H          10.0021   -4.0350    0.0000 H       1  UNL1        0.0671
     50 H          10.6603   -1.0350    0.0000 H       1  UNL1        0.0647
     51 H           9.4651   -2.7250    0.0000 H       1  UNL1        0.0937
     52 H          12.6002   -2.1550    0.0000 H       1  UNL1        0.0647
     53 H          13.4662   -1.0350    0.0000 H       1  UNL1        0.0648
     54 H          12.9292    0.2750    0.0000 H       1  UNL1        0.0671
     55 H           6.2565   -2.7373    0.0000 H       1  UNL1        0.0587
     56 H           6.6550   -3.4276    0.0000 H       1  UNL1        0.0587
     57 H          10.1191   -1.2624    0.0000 H       1  UNL1        0.0587
     58 H           9.7206   -1.9527    0.0000 H       1  UNL1        0.0587
     59 H          11.5263    0.4650    0.0000 H       1  UNL1        0.0937
     60 H           6.5380   -1.0350    0.0000 H       1  UNL1        0.0937
     61 H           6.0010    0.2750    0.0000 H       1  UNL1        0.0671
     62 H           4.5981    0.4650    0.0000 H       1  UNL1        0.0648
     63 H           4.8311    0.2750    0.0000 H       1  UNL1        0.0647
     64 H           4.2690   -1.9650    0.0000 H       1  UNL1        0.0647
     65 H           3.0044   -2.3200    0.0000 H       1  UNL1        0.0584
     66 H           3.8015   -2.3200    0.0000 H       1  UNL1        0.0584
     67 H           6.3301   -4.5350    0.0000 H       1  UNL1        0.2100
     68 H           8.0622   -6.1550    0.0000 H       1  UNL1        0.2100
     69 H          10.8681   -4.5350    0.0000 H       1  UNL1        0.2101
     70 H          12.6002   -3.1550    0.0000 H       1  UNL1        0.2100
     71 H          14.3322   -1.5350    0.0000 H       1  UNL1        0.2100
     72 H          10.5866    1.7627    0.0000 H       1  UNL1        0.0587
     73 H          10.9851    1.0724    0.0000 H       1  UNL1        0.0587
     74 H          13.7953    0.7750    0.0000 H       1  UNL1        0.2101
     75 H          11.1972    3.2750    0.0000 H       1  UNL1        0.0643
     76 H           6.8671    0.7750    0.0000 H       1  UNL1        0.2101
     77 H           4.5981    1.4650    0.0000 H       1  UNL1        0.2100
     78 H           3.4030    0.7750    0.0000 H       1  UNL1        0.2100
     79 H           9.7942    3.4650    0.0000 H       1  UNL1        0.0647
     80 H          10.8681    3.8450    0.0000 H       1  UNL1        0.0650
     81 H           2.0000   -1.6550    0.0000 H       1  UNL1        0.2095
     82 H           9.4651    4.0350    0.0000 H       1  UNL1        0.0697
     83 H          12.0632    3.7750    0.0000 H       1  UNL1        0.2100
     84 H           8.9282    2.9650    0.0000 H       1  UNL1        0.2100
     85 H          11.1972    5.2750    0.0000 H       1  UNL1        0.2100
     86 H          10.0021    5.9650    0.0000 H       1  UNL1        0.1055
     87 H           8.0622    4.4650    0.0000 H       1  UNL1        0.2105
@<TRIPOS>BOND
     1     1    22    1
     2     1    26    1
     3    26     2    1
     4     2    32    1
     5     3    27    1
     6     3    33    1
     7     4    31    1
     8    34     4    1
     9     5    34    1
    10     5    38    1
    11    23     6    1
    12     6    67    1
    13    24     7    1
    14     7    68    1
    15    25     8    1
    16     8    69    1
    17    33     9    1
    18     9    40    1
    19    28    10    1
    20    10    70    1
    21    29    11    1
    22    11    71    1
    23    30    12    1
    24    12    74    1
    25    35    13    1
    26    13    76    1
    27    36    14    1
    28    14    77    1
    29    37    15    1
    30    15    78    1
    31    16    39    1
    32    16    81    1
    33    41    17    1
    34    17    83    1
    35    42    18    1
    36    18    84    1
    37    43    19    1
    38    19    85    1
    39    44    20    1
    40    20    87    1
    41    21    45    2
    42    22    23    1
    43    22    31    1
    44    22    46    1
    45    23    24    1
    46    23    47    1
    47    24    25    1
    48    24    48    1
    49    25    26    1
    50    25    49    1
    51    26    51    1
    52    27    28    1
    53    27    32    1
    54    27    50    1
    55    28    29    1
    56    28    52    1
    57    29    30    1
    58    29    53    1
    59    30    33    1
    60    30    54    1
    61    31    55    1
    62    31    56    1
    63    32    57    1
    64    32    58    1
    65    33    59    1
    66    34    35    1
    67    34    60    1
    68    35    36    1
    69    35    61    1
    70    36    37    1
    71    36    62    1
    72    37    38    1
    73    37    63    1
    74    38    39    1
    75    38    64    1
    76    39    65    1
    77    39    66    1
    78    40    41    1
    79    40    72    1
    80    40    73    1
    81    41    42    1
    82    41    75    1
    83    42    43    1
    84    42    79    1
    85    43    44    1
    86    43    80    1
    87    44    45    1
    88    44    82    1
    89    45    86    1
