@<TRIPOS>MOLECULE
IMPHY007577
 97 101 0 0 0
SMALL
GASTEIGER

@<TRIPOS>ATOM
      1 O           7.0776   -0.4647    0.0000 O.3     1  UNL1       -0.3554
      2 O           8.2778    1.0065    0.0000 O.3     1  UNL1       -0.4577
      3 O           6.3243   -0.8475    0.0000 O.3     1  UNL1       -0.3820
      4 O           5.3236    2.6384    0.0000 O.3     1  UNL1       -0.4567
      5 O           6.8944    2.6940    0.0000 O.3     1  UNL1       -0.4529
      6 O           3.7195   -0.3392    0.0000 O.3     1  UNL1       -0.4543
      7 O           3.7319    1.6733    0.0000 O.3     1  UNL1       -0.4539
      8 O           6.5740    3.0761    0.0000 O.3     1  UNL1       -0.4639
      9 O           8.6816    2.2625    0.0000 O.2     1  UNL1       -0.2929
     10 O           7.9981   -1.8445    0.0000 O.3     1  UNL1       -0.4582
     11 O           9.9602    0.5947    0.0000 O.2     1  UNL1       -0.2512
     12 O           3.6121    2.3722    0.0000 O.2     1  UNL1       -0.2512
     13 O           8.5878    3.0583    0.0000 O.2     1  UNL1       -0.2511
     14 O           2.8464   -1.8248    0.0000 O.2     1  UNL1       -0.2505
     15 O           2.8473    0.1842    0.0000 O.2     1  UNL1       -0.2512
     16 O           6.4794    4.8056    0.0000 O.2     1  UNL1       -0.2512
     17 O           8.8570   -3.3384    0.0000 O.2     1  UNL1       -0.2449
     18 N           5.4195   -3.3168    0.0000 N.ar    1  UNL1       -0.2591
     19 C           6.3263    0.1500    0.0000 C.3     1  UNL1        0.1555
     20 C           6.3385    1.1206    0.0000 C.3     1  UNL1        0.1242
     21 C           7.3178    0.7267    0.0000 C.3     1  UNL1        0.1479
     22 C           5.4522   -0.3581    0.0000 C.3     1  UNL1        0.1367
     23 C           8.4586    0.6088    0.0000 C.3     1  UNL1        0.0929
     24 C           8.0266   -0.2604    0.0000 C.3     1  UNL1        0.1147
     25 C           5.4773    1.6503    0.0000 C.3     1  UNL1        0.1587
     26 C           7.1048    1.7163    0.0000 C.3     1  UNL1        0.1760
     27 C           4.5790    0.1516    0.0000 C.3     1  UNL1        0.1742
     28 C           4.5917    1.1626    0.0000 C.3     1  UNL1        0.1799
     29 C           8.0484    1.4885    0.0000 C.2     1  UNL1        0.1840
     30 C           6.2838    2.1191    0.0000 C.3     1  UNL1        0.1083
     31 C           4.5924   -0.8686    0.0000 C.3     1  UNL1       -0.0295
     32 C           8.6222   -1.0268    0.0000 C.3     1  UNL1        0.1222
     33 C           9.0217   -0.1609    0.0000 C.3     1  UNL1       -0.0318
     34 C           9.2379    1.2863    0.0000 C.2     1  UNL1        0.3043
     35 C           4.3910    2.9994    0.0000 C.2     1  UNL1        0.3043
     36 C           7.6359    3.3649    0.0000 C.2     1  UNL1        0.3046
     37 C           3.7148   -1.3289    0.0000 C.2     1  UNL1        0.3104
     38 C           2.8597    1.1841    0.0000 C.2     1  UNL1        0.3044
     39 C           6.0274    3.9135    0.0000 C.2     1  UNL1        0.3040
     40 C           4.5695   -1.8280    0.0000 C.3     1  UNL1        0.0540
     41 C           9.4757    2.2576    0.0000 C.3     1  UNL1        0.0332
     42 C           7.9934   -2.8342    0.0000 C.2     1  UNL1        0.3410
     43 C           4.2373    3.9875    0.0000 C.3     1  UNL1        0.0332
     44 C           7.4256    4.3426    0.0000 C.3     1  UNL1        0.0333
     45 C           2.0000    1.6948    0.0000 C.3     1  UNL1        0.0332
     46 C           5.4290   -1.3372    0.0000 C.3     1  UNL1       -0.0349
     47 C           5.0289    3.8589    0.0000 C.3     1  UNL1        0.0332
     48 C           3.7893   -2.4534    0.0000 C.3     1  UNL1       -0.0523
     49 C           7.1338   -3.3250    0.0000 C.ar    1  UNL1        0.0802
     50 C           6.2838   -1.8362    0.0000 C.3     1  UNL1       -0.0089
     51 C           6.2791   -2.8260    0.0000 C.ar    1  UNL1        0.0552
     52 C           7.1291   -4.3148    0.0000 C.ar    1  UNL1       -0.0446
     53 C           6.2696   -4.8056    0.0000 C.ar    1  UNL1       -0.0428
     54 C           5.4148   -4.3066    0.0000 C.ar    1  UNL1        0.0279
     55 H           6.8552    1.1396    0.0000 H       1  UNL1        0.0772
     56 H           9.3085    0.5982    0.0000 H       1  UNL1        0.0446
     57 H           4.9208    1.9236    0.0000 H       1  UNL1        0.0782
     58 H           7.5486    2.1492    0.0000 H       1  UNL1        0.0824
     59 H           3.8466    0.5830    0.0000 H       1  UNL1        0.0803
     60 H           4.0509    0.8593    0.0000 H       1  UNL1        0.0811
     61 H           5.8103    2.5193    0.0000 H       1  UNL1        0.0707
     62 H           6.8994    2.0450    0.0000 H       1  UNL1        0.0707
     63 H           4.2759   -0.3355    0.0000 H       1  UNL1        0.0259
     64 H           4.0592   -1.1851    0.0000 H       1  UNL1        0.0259
     65 H           4.9089   -1.4017    0.0000 H       1  UNL1        0.0259
     66 H           9.0809   -1.4439    0.0000 H       1  UNL1        0.0727
     67 H           9.0773   -0.6056    0.0000 H       1  UNL1        0.0727
     68 H           9.0834   -0.7778    0.0000 H       1  UNL1        0.0259
     69 H           9.6386   -0.0992    0.0000 H       1  UNL1        0.0259
     70 H           8.9599    0.4560    0.0000 H       1  UNL1        0.0259
     71 H           6.8041   -1.2402    0.0000 H       1  UNL1        0.2104
     72 H           4.6636   -2.4408    0.0000 H       1  UNL1        0.0411
     73 H          10.0779    2.1102    0.0000 H       1  UNL1        0.0342
     74 H           9.6231    2.8598    0.0000 H       1  UNL1        0.0342
     75 H           8.8734    2.4050    0.0000 H       1  UNL1        0.0342
     76 H           4.8499    4.0828    0.0000 H       1  UNL1        0.0342
     77 H           4.1420    4.6001    0.0000 H       1  UNL1        0.0342
     78 H           3.6246    3.8922    0.0000 H       1  UNL1        0.0342
     79 H           8.0317    4.4730    0.0000 H       1  UNL1        0.0342
     80 H           7.2952    4.9487    0.0000 H       1  UNL1        0.0342
     81 H           6.8194    4.2121    0.0000 H       1  UNL1        0.0342
     82 H           2.3166    2.2279    0.0000 H       1  UNL1        0.0342
     83 H           1.4670    2.0115    0.0000 H       1  UNL1        0.0342
     84 H           1.6834    1.1618    0.0000 H       1  UNL1        0.0342
     85 H           5.8299   -0.8642    0.0000 H       1  UNL1        0.0277
     86 H           5.0328   -0.8603    0.0000 H       1  UNL1        0.0277
     87 H           4.9951    4.4780    0.0000 H       1  UNL1        0.0342
     88 H           4.4099    3.8250    0.0000 H       1  UNL1        0.0342
     89 H           5.0628    3.2398    0.0000 H       1  UNL1        0.0342
     90 H           3.4015   -1.9697    0.0000 H       1  UNL1        0.0238
     91 H           3.3055   -2.8412    0.0000 H       1  UNL1        0.0238
     92 H           4.1771   -2.9372    0.0000 H       1  UNL1        0.0238
     93 H           6.8939   -1.9468    0.0000 H       1  UNL1        0.0329
     94 H           6.4987   -1.2546    0.0000 H       1  UNL1        0.0329
     95 H           7.6645   -4.6274    0.0000 H       1  UNL1        0.0627
     96 H           6.2666   -5.4256    0.0000 H       1  UNL1        0.0633
     97 H           4.8764   -4.6140    0.0000 H       1  UNL1        0.0829
@<TRIPOS>BOND
     1    19     1    1
     2     1    24    1
     3    21     2    1
     4     2    34    1
     5    22     3    1
     6     3    71    1
     7    25     4    1
     8     4    35    1
     9    26     5    1
    10     5    36    1
    11     6    27    1
    12     6    37    1
    13    28     7    1
    14     7    38    1
    15     8    30    1
    16     8    39    1
    17     9    29    2
    18    10    32    1
    19    10    42    1
    20    11    34    2
    21    12    35    2
    22    13    36    2
    23    14    37    2
    24    15    38    2
    25    16    39    2
    26    17    42    2
    27    18    51   ar
    28    18    54   ar
    29    19    20    1
    30    19    21    1
    31    19    22    1
    32    20    25    1
    33    20    26    1
    34    20    30    1
    35    21    23    1
    36    21    55    1
    37    22    27    1
    38    22    31    1
    39    23    24    1
    40    23    29    1
    41    23    56    1
    42    24    32    1
    43    24    33    1
    44    25    28    1
    45    25    57    1
    46    26    29    1
    47    26    58    1
    48    27    28    1
    49    27    59    1
    50    28    60    1
    51    30    61    1
    52    30    62    1
    53    31    63    1
    54    31    64    1
    55    31    65    1
    56    32    66    1
    57    32    67    1
    58    33    68    1
    59    33    69    1
    60    33    70    1
    61    34    41    1
    62    35    43    1
    63    36    44    1
    64    37    40    1
    65    38    45    1
    66    39    47    1
    67    40    46    1
    68    40    48    1
    69    40    72    1
    70    41    73    1
    71    41    74    1
    72    41    75    1
    73    42    49    1
    74    43    76    1
    75    43    77    1
    76    43    78    1
    77    44    79    1
    78    44    80    1
    79    44    81    1
    80    45    82    1
    81    45    83    1
    82    45    84    1
    83    46    50    1
    84    46    85    1
    85    46    86    1
    86    47    87    1
    87    47    88    1
    88    47    89    1
    89    48    90    1
    90    48    91    1
    91    48    92    1
    92    49    51   ar
    93    49    52   ar
    94    50    51    1
    95    50    93    1
    96    50    94    1
    97    52    53   ar
    98    52    95    1
    99    53    54   ar
   100    53    96    1
   101    54    97    1
