@<TRIPOS>MOLECULE
IMPHY009957
 64 69 0 0 0
SMALL
GASTEIGER

@<TRIPOS>ATOM
      1 O           5.6993   -1.0603    0.0000 O.3     1  UNL1       -0.3516
      2 O           8.3939   -1.6020    0.0000 O.3     1  UNL1       -0.4539
      3 O           4.8614   -1.5881    0.0000 O.3     1  UNL1       -0.3911
      4 O           7.4879   -3.1228    0.0000 O.2     1  UNL1       -0.2478
      5 O           2.1359    3.0909    0.0000 O.2     1  UNL1       -0.2921
      6 O          10.3147    1.1645    0.0000 O.2     1  UNL1       -0.4706
      7 C           6.6098   -0.5535    0.0000 C.3     1  UNL1        0.1240
      8 C           5.7438   -0.0535    0.0000 C.3     1  UNL1        0.0301
      9 C           5.7438    0.9465    0.0000 C.3     1  UNL1       -0.0214
     10 C           7.4758   -0.0535    0.0000 C.3     1  UNL1        0.0419
     11 C           6.5938   -1.5950    0.0000 C.3     1  UNL1        0.1857
     12 C           4.8498    1.4812    0.0000 C.3     1  UNL1       -0.0064
     13 C           4.8498   -0.5882    0.0000 C.3     1  UNL1        0.0639
     14 C           6.6098    1.4465    0.0000 C.3     1  UNL1       -0.0480
     15 C           7.4758    0.9465    0.0000 C.3     1  UNL1       -0.0409
     16 C           3.9438    0.9673    0.0000 C.3     1  UNL1       -0.0174
     17 C           3.9438   -0.0743    0.0000 C.3     1  UNL1       -0.0217
     18 C           8.3858   -0.5604    0.0000 C.3     1  UNL1        0.1391
     19 C           6.3939   -1.1793    0.0000 C.3     1  UNL1       -0.0542
     20 C           8.3419    0.4465    0.0000 C.3     1  UNL1       -0.0531
     21 C           3.0000    1.5025    0.0000 C.3     1  UNL1        0.0311
     22 C           7.4918   -2.1228    0.0000 C.2     1  UNL1        0.3398
     23 C           5.7197    1.9744    0.0000 C.3     1  UNL1       -0.0555
     24 C           4.8749    2.5659    0.0000 C.2     1  UNL1       -0.0742
     25 C           9.2460   -0.0504    0.0000 C.ar    1  UNL1        0.0310
     26 C           3.0000    2.5875    0.0000 C.2     1  UNL1        0.1617
     27 C           3.9438    3.1228    0.0000 C.2     1  UNL1       -0.0221
     28 C           2.0000    1.4987    0.0000 C.3     1  UNL1       -0.0525
     29 C           2.5033    0.6346    0.0000 C.3     1  UNL1       -0.0525
     30 C          10.1642   -0.4465    0.0000 C.ar    1  UNL1       -0.0172
     31 C           9.3390    0.9453    0.0000 C.ar    1  UNL1        0.0984
     32 C          10.8247    0.3043    0.0000 C.ar    1  UNL1        0.0921
     33 H           6.4799    0.5215    0.0000 H       1  UNL1        0.0316
     34 H           6.1604   -2.3262    0.0000 H       1  UNL1        0.0743
     35 H           5.5916   -1.0032    0.0000 H       1  UNL1        0.0600
     36 H           7.0083    1.9214    0.0000 H       1  UNL1        0.0269
     37 H           6.2113    1.9214    0.0000 H       1  UNL1        0.0269
     38 H           8.0864    0.8388    0.0000 H       1  UNL1        0.0273
     39 H           7.6879    1.5291    0.0000 H       1  UNL1        0.0273
     40 H           3.2093    0.5395    0.0000 H       1  UNL1        0.0319
     41 H           3.3329    0.0318    0.0000 H       1  UNL1        0.0293
     42 H           3.7347   -0.6580    0.0000 H       1  UNL1        0.0293
     43 H           9.1260   -0.9782    0.0000 H       1  UNL1        0.0793
     44 H           5.8570   -1.4893    0.0000 H       1  UNL1        0.0237
     45 H           6.7040   -1.7162    0.0000 H       1  UNL1        0.0237
     46 H           6.9308   -0.8692    0.0000 H       1  UNL1        0.0237
     47 H           8.6519   -0.0905    0.0000 H       1  UNL1        0.0237
     48 H           8.8788    0.7565    0.0000 H       1  UNL1        0.0237
     49 H           8.0319    0.9834    0.0000 H       1  UNL1        0.0237
     50 H           6.0256    1.4351    0.0000 H       1  UNL1        0.0238
     51 H           6.2590    2.2803    0.0000 H       1  UNL1        0.0238
     52 H           5.4138    2.5138    0.0000 H       1  UNL1        0.0238
     53 H           5.4178    2.8654    0.0000 H       1  UNL1        0.0579
     54 H           4.3281   -1.9043    0.0000 H       1  UNL1        0.2098
     55 H           3.9510    3.7427    0.0000 H       1  UNL1        0.0649
     56 H           1.9976    2.1187    0.0000 H       1  UNL1        0.0239
     57 H           1.3800    1.4963    0.0000 H       1  UNL1        0.0239
     58 H           2.0024    0.8787    0.0000 H       1  UNL1        0.0239
     59 H           1.9652    0.9425    0.0000 H       1  UNL1        0.0239
     60 H           2.1954    0.0965    0.0000 H       1  UNL1        0.0239
     61 H           3.0415    0.3267    0.0000 H       1  UNL1        0.0239
     62 H          10.3001   -1.0514    0.0000 H       1  UNL1        0.0653
     63 H           8.8735    1.3548    0.0000 H       1  UNL1        0.1033
     64 H          11.4420    0.2466    0.0000 H       1  UNL1        0.1029
@<TRIPOS>BOND
     1     1     7    1
     2     1    11    1
     3     2    18    1
     4     2    22    1
     5     3    13    1
     6     3    54    1
     7     4    22    2
     8     5    26    2
     9     6    31   ar
    10     6    32   ar
    11     7     8    1
    12     7    10    1
    13     7    11    1
    14     8     9    1
    15     8    13    1
    16     8    19    1
    17     9    12    1
    18     9    14    1
    19     9    33    1
    20    10    15    1
    21    10    18    1
    22    10    20    1
    23    11    22    1
    24    11    34    1
    25    12    16    1
    26    12    23    1
    27    12    24    1
    28    13    17    1
    29    13    35    1
    30    14    15    1
    31    14    36    1
    32    14    37    1
    33    15    38    1
    34    15    39    1
    35    16    17    1
    36    16    21    1
    37    16    40    1
    38    17    41    1
    39    17    42    1
    40    18    25    1
    41    18    43    1
    42    19    44    1
    43    19    45    1
    44    19    46    1
    45    20    47    1
    46    20    48    1
    47    20    49    1
    48    21    26    1
    49    21    28    1
    50    21    29    1
    51    23    50    1
    52    23    51    1
    53    23    52    1
    54    24    27    2
    55    24    53    1
    56    25    30   ar
    57    25    31   ar
    58    26    27    1
    59    27    55    1
    60    28    56    1
    61    28    57    1
    62    28    58    1
    63    29    59    1
    64    29    60    1
    65    29    61    1
    66    30    32   ar
    67    30    62    1
    68    31    63    1
    69    32    64    1
