@<TRIPOS>MOLECULE
IMPHY014727
 51 55 0 0 0
SMALL
GASTEIGER

@<TRIPOS>ATOM
      1 O           2.4608   -0.2597    0.0000 O.3     1  UNL1       -0.3848
      2 O           5.9570    0.4239    0.0000 O.3     1  UNL1       -0.3849
      3 O           2.1722    2.1044    0.0000 O.3     1  UNL1       -0.4522
      4 O           2.9992    3.5627    0.0000 O.3     1  UNL1       -0.4526
      5 O           7.7510   -0.5144    0.0000 O.3     1  UNL1       -0.4914
      6 O           7.7510   -2.5627    0.0000 O.3     1  UNL1       -0.4914
      7 N           3.3548   -1.0385    0.0000 N.3     1  UNL1       -0.2908
      8 C           4.2208   -0.5385    0.0000 C.3     1  UNL1        0.1079
      9 C           3.4118    0.0493    0.0000 C.3     1  UNL1        0.1092
     10 C           5.0298    0.0493    0.0000 C.3     1  UNL1        0.1058
     11 C           5.0868   -1.0385    0.0000 C.ar    1  UNL1       -0.0147
     12 C           3.7208    1.0003    0.0000 C.ar    1  UNL1        0.0342
     13 C           4.7208    1.0003    0.0000 C.ar    1  UNL1       -0.0075
     14 C           3.3548   -2.0385    0.0000 C.3     1  UNL1        0.0036
     15 C           5.0868   -2.0385    0.0000 C.ar    1  UNL1       -0.0373
     16 C           4.2208   -2.5385    0.0000 C.3     1  UNL1       -0.0144
     17 C           3.1862    1.8943    0.0000 C.ar    1  UNL1        0.1722
     18 C           2.4888   -1.5385    0.0000 C.3     1  UNL1       -0.0118
     19 C           5.9808   -0.5039    0.0000 C.ar    1  UNL1       -0.0109
     20 C           5.2555    1.8943    0.0000 C.ar    1  UNL1       -0.0520
     21 C           5.9808   -2.5732    0.0000 C.ar    1  UNL1       -0.0128
     22 C           3.7000    2.8003    0.0000 C.ar    1  UNL1        0.1666
     23 C           4.7416    2.8003    0.0000 C.ar    1  UNL1       -0.0158
     24 C           6.8869   -1.0177    0.0000 C.ar    1  UNL1        0.1618
     25 C           6.8869   -2.0593    0.0000 C.ar    1  UNL1        0.1618
     26 C           2.0570    3.1334    0.0000 C.3     1  UNL1        0.2332
     27 C           8.6189   -1.0110    0.0000 C.3     1  UNL1        0.0790
     28 C           7.7471   -3.5627    0.0000 C.3     1  UNL1        0.0790
     29 H           2.9734    0.4877    0.0000 H       1  UNL1        0.0668
     30 H           5.3304   -0.4930    0.0000 H       1  UNL1        0.0667
     31 H           2.7442   -1.9308    0.0000 H       1  UNL1        0.0430
     32 H           3.1428   -2.6211    0.0000 H       1  UNL1        0.0430
     33 H           3.8223   -3.0135    0.0000 H       1  UNL1        0.0326
     34 H           4.6194   -3.0135    0.0000 H       1  UNL1        0.0326
     35 H           2.1788   -1.0016    0.0000 H       1  UNL1        0.0391
     36 H           1.9518   -1.8485    0.0000 H       1  UNL1        0.0391
     37 H           2.7988   -2.0754    0.0000 H       1  UNL1        0.0391
     38 H           5.9736    0.1161    0.0000 H       1  UNL1        0.0659
     39 H           5.8754    1.8871    0.0000 H       1  UNL1        0.0622
     40 H           2.0000    0.1551    0.0000 H       1  UNL1        0.2103
     41 H           6.0433    1.0378    0.0000 H       1  UNL1        0.2103
     42 H           5.9736   -3.1931    0.0000 H       1  UNL1        0.0658
     43 H           5.0537    3.3361    0.0000 H       1  UNL1        0.0655
     44 H           1.8607    3.7215    0.0000 H       1  UNL1        0.1166
     45 H           1.4515    3.0000    0.0000 H       1  UNL1        0.1166
     46 H           8.3110   -1.5492    0.0000 H       1  UNL1        0.0660
     47 H           9.1570   -1.3190    0.0000 H       1  UNL1        0.0660
     48 H           8.9268   -0.4729    0.0000 H       1  UNL1        0.0660
     49 H           7.1271   -3.5603    0.0000 H       1  UNL1        0.0660
     50 H           7.7447   -4.1826    0.0000 H       1  UNL1        0.0660
     51 H           8.3671   -3.5650    0.0000 H       1  UNL1        0.0660
@<TRIPOS>BOND
     1     1     9    1
     2     1    40    1
     3     2    10    1
     4     2    41    1
     5     3    17    1
     6     3    26    1
     7     4    22    1
     8     4    26    1
     9     5    24    1
    10     5    27    1
    11     6    25    1
    12     6    28    1
    13     7     8    1
    14     7    14    1
    15     7    18    1
    16     8     9    1
    17     8    10    1
    18     8    11    1
    19     9    12    1
    20     9    29    1
    21    10    13    1
    22    10    30    1
    23    11    15   ar
    24    11    19   ar
    25    12    13   ar
    26    12    17   ar
    27    13    20   ar
    28    14    16    1
    29    14    31    1
    30    14    32    1
    31    15    16    1
    32    15    21   ar
    33    16    33    1
    34    16    34    1
    35    17    22   ar
    36    18    35    1
    37    18    36    1
    38    18    37    1
    39    19    24   ar
    40    19    38    1
    41    20    23   ar
    42    20    39    1
    43    21    25   ar
    44    21    42    1
    45    22    23   ar
    46    23    43    1
    47    24    25   ar
    48    26    44    1
    49    26    45    1
    50    27    46    1
    51    27    47    1
    52    27    48    1
    53    28    49    1
    54    28    50    1
    55    28    51    1
