@<TRIPOS>MOLECULE
IMPHY008966
 75 79 0 0 0
SMALL
GASTEIGER

@<TRIPOS>ATOM
      1 O           6.5251   -1.9324    0.0000 O.3     1  UNL1       -0.3876
      2 O           7.1640    1.3239    0.0000 O.3     1  UNL1       -0.3850
      3 O           8.8678    0.1487    0.0000 O.3     1  UNL1       -0.3834
      4 O           8.9886    2.5398    0.0000 O.3     1  UNL1       -0.3888
      5 O           2.9755    0.1247    0.0000 O.2     1  UNL1       -0.2918
      6 O          11.7676    3.0306    0.0000 O.3     1  UNL1       -0.4641
      7 O          13.3540    2.2188    0.0000 O.2     1  UNL1       -0.2505
      8 C           6.5251    0.0676    0.0000 C.3     1  UNL1        0.0285
      9 C           6.5251   -0.9324    0.0000 C.3     1  UNL1        0.0776
     10 C           7.4714    0.3723    0.0000 C.3     1  UNL1        0.1048
     11 C           5.6591   -1.4324    0.0000 C.3     1  UNL1       -0.0041
     12 C           4.7931   -0.9324    0.0000 C.3     1  UNL1       -0.0191
     13 C           7.4714   -1.2371    0.0000 C.3     1  UNL1       -0.0204
     14 C           5.6591    0.5676    0.0000 C.3     1  UNL1       -0.0420
     15 C           8.0550   -0.4324    0.0000 C.3     1  UNL1       -0.0180
     16 C           4.7931    0.0676    0.0000 C.3     1  UNL1       -0.0480
     17 C           8.2814    0.9587    0.0000 C.3     1  UNL1        0.1180
     18 C           3.8831   -1.4392    0.0000 C.3     1  UNL1        0.0545
     19 C           6.1831    1.0073    0.0000 C.3     1  UNL1       -0.0542
     20 C           5.6752   -2.4739    0.0000 C.3     1  UNL1       -0.0287
     21 C           3.8751   -2.4808    0.0000 C.2     1  UNL1       -0.0561
     22 C           9.0914    1.5451    0.0000 C.3     1  UNL1        0.0867
     23 C           4.7771   -3.0016    0.0000 C.2     1  UNL1       -0.0832
     24 C           7.6950    1.7688    0.0000 C.3     1  UNL1       -0.0309
     25 C           3.8908   -0.4393    0.0000 C.3     1  UNL1       -0.0485
     26 C           2.9562   -0.8751    0.0000 C.2     1  UNL1        0.1659
     27 C           2.9396   -3.0306    0.0000 C.3     1  UNL1       -0.0122
     28 C          10.0043    1.1368    0.0000 C.3     1  UNL1       -0.0174
     29 C           2.0084   -1.4031    0.0000 C.2     1  UNL1       -0.0220
     30 C          10.8143    1.7232    0.0000 C.3     1  UNL1        0.0084
     31 C           2.0000   -2.4881    0.0000 C.2     1  UNL1       -0.0767
     32 C          11.7648    1.4125    0.0000 C.3     1  UNL1        0.0596
     33 C          10.8160    2.7232    0.0000 C.3     1  UNL1        0.0961
     34 C          12.3540    2.2205    0.0000 C.2     1  UNL1        0.3103
     35 C          12.0722    0.4609    0.0000 C.3     1  UNL1       -0.0519
     36 H           6.3985   -1.8517    0.0000 H       1  UNL1        0.0335
     37 H           5.3300   -0.6224    0.0000 H       1  UNL1        0.0317
     38 H           7.2203   -1.8040    0.0000 H       1  UNL1        0.0294
     39 H           8.0087   -1.5463    0.0000 H       1  UNL1        0.0294
     40 H           6.0576    1.0426    0.0000 H       1  UNL1        0.0272
     41 H           5.2606    1.0426    0.0000 H       1  UNL1        0.0272
     42 H           8.5158   -0.8471    0.0000 H       1  UNL1        0.0295
     43 H           8.5158   -0.0177    0.0000 H       1  UNL1        0.0295
     44 H           4.5810    0.6502    0.0000 H       1  UNL1        0.0269
     45 H           4.1825   -0.0400    0.0000 H       1  UNL1        0.0269
     46 H           6.7657    1.2194    0.0000 H       1  UNL1        0.0237
     47 H           5.9711    1.5899    0.0000 H       1  UNL1        0.0237
     48 H           5.6005    0.7953    0.0000 H       1  UNL1        0.0237
     49 H           5.8932   -3.0543    0.0000 H       1  UNL1        0.0311
     50 H           6.2843   -2.3584    0.0000 H       1  UNL1        0.0311
     51 H           7.0621   -2.2424    0.0000 H       1  UNL1        0.2102
     52 H           9.5936    1.9087    0.0000 H       1  UNL1        0.0623
     53 H           4.7795   -3.6216    0.0000 H       1  UNL1        0.0572
     54 H           6.6388    1.6534    0.0000 H       1  UNL1        0.2103
     55 H           8.1972    2.1323    0.0000 H       1  UNL1        0.0259
     56 H           7.3314    2.2710    0.0000 H       1  UNL1        0.0259
     57 H           7.1928    1.4052    0.0000 H       1  UNL1        0.0259
     58 H           4.5108   -0.4440    0.0000 H       1  UNL1        0.0242
     59 H           3.8956    0.1807    0.0000 H       1  UNL1        0.0242
     60 H           3.2708   -0.4345    0.0000 H       1  UNL1        0.0242
     61 H           2.5423   -3.5065    0.0000 H       1  UNL1        0.0353
     62 H           3.3406   -3.5034    0.0000 H       1  UNL1        0.0353
     63 H           9.4845    0.2124    0.0000 H       1  UNL1        0.2104
     64 H           9.6567    0.6234    0.0000 H       1  UNL1        0.0295
     65 H          10.4495    0.7053    0.0000 H       1  UNL1        0.0295
     66 H           1.4750   -1.0869    0.0000 H       1  UNL1        0.0649
     67 H          10.2624    2.0056    0.0000 H       1  UNL1        0.0342
     68 H           1.4619   -2.7960    0.0000 H       1  UNL1        0.0576
     69 H           9.4908    2.9034    0.0000 H       1  UNL1        0.2099
     70 H          11.3257    0.9749    0.0000 H       1  UNL1        0.0414
     71 H          10.6882    3.3299    0.0000 H       1  UNL1        0.0700
     72 H          10.1993    2.6594    0.0000 H       1  UNL1        0.0700
     73 H          11.4822    0.2704    0.0000 H       1  UNL1        0.0238
     74 H          12.2628   -0.1291    0.0000 H       1  UNL1        0.0238
     75 H          12.6622    0.6515    0.0000 H       1  UNL1        0.0238
@<TRIPOS>BOND
     1     9     1    1
     2     1    51    1
     3    10     2    1
     4     2    54    1
     5    17     3    1
     6     3    63    1
     7    22     4    1
     8     4    69    1
     9     5    26    2
    10     6    33    1
    11     6    34    1
    12     7    34    2
    13     8     9    1
    14     8    10    1
    15     8    14    1
    16     8    19    1
    17     9    11    1
    18     9    13    1
    19    10    15    1
    20    10    17    1
    21    11    12    1
    22    11    20    1
    23    11    36    1
    24    12    16    1
    25    12    18    1
    26    12    37    1
    27    13    15    1
    28    13    38    1
    29    13    39    1
    30    14    16    1
    31    14    40    1
    32    14    41    1
    33    15    42    1
    34    15    43    1
    35    16    44    1
    36    16    45    1
    37    17    22    1
    38    17    24    1
    39    18    21    1
    40    18    25    1
    41    18    26    1
    42    19    46    1
    43    19    47    1
    44    19    48    1
    45    20    23    1
    46    20    49    1
    47    20    50    1
    48    21    23    2
    49    21    27    1
    50    22    28    1
    51    22    52    1
    52    23    53    1
    53    24    55    1
    54    24    56    1
    55    24    57    1
    56    25    58    1
    57    25    59    1
    58    25    60    1
    59    26    29    1
    60    27    31    1
    61    27    61    1
    62    27    62    1
    63    30    28    1
    64    28    64    1
    65    28    65    1
    66    29    31    2
    67    29    66    1
    68    30    32    1
    69    30    33    1
    70    30    67    1
    71    31    68    1
    72    32    34    1
    73    32    35    1
    74    32    70    1
    75    33    71    1
    76    33    72    1
    77    35    73    1
    78    35    74    1
    79    35    75    1
