@<TRIPOS>MOLECULE
IMPHY015565
 35 36 0 0 0
SMALL
GASTEIGER

@<TRIPOS>ATOM
      1 O           3.0723    1.0408    0.0000 O.3     1  UNL1       -0.4604
      2 O           4.5723    1.9068    0.0000 O.2     1  UNL1       -0.2509
      3 C           5.4490   -1.7650    0.0000 C.3     1  UNL1       -0.0185
      4 C           4.3089   -0.8079    0.0000 C.3     1  UNL1        0.0060
      5 C           4.0501   -1.7738    0.0000 C.3     1  UNL1        0.0228
      6 C           3.5723    0.1747    0.0000 C.3     1  UNL1        0.1136
      7 C           2.2756   -1.1190    0.0000 C.3     1  UNL1       -0.0278
      8 C           2.8290   -2.6395    0.0000 C.2     1  UNL1       -0.0694
      9 C           5.9490   -2.6310    0.0000 C.3     1  UNL1       -0.0588
     10 C           6.3150   -1.2650    0.0000 C.3     1  UNL1       -0.0588
     11 C           2.0000   -2.0803    0.0000 C.2     1  UNL1       -0.0842
     12 C           2.8639   -3.6388    0.0000 C.3     1  UNL1       -0.0434
     13 C           3.5723    1.9068    0.0000 C.2     1  UNL1        0.3071
     14 C           3.0723    2.7728    0.0000 C.3     1  UNL1        0.0421
     15 C           3.5723    3.6388    0.0000 C.3     1  UNL1       -0.0552
     16 H           4.7592   -0.3817    0.0000 H       1  UNL1        0.0345
     17 H           4.2401   -2.3640    0.0000 H       1  UNL1        0.0387
     18 H           4.0897    0.5163    0.0000 H       1  UNL1        0.0743
     19 H           2.2706   -0.4990    0.0000 H       1  UNL1        0.0311
     20 H           1.6613   -1.0352    0.0000 H       1  UNL1        0.0311
     21 H           5.4121   -2.9410    0.0000 H       1  UNL1        0.0235
     22 H           6.2590   -3.1679    0.0000 H       1  UNL1        0.0235
     23 H           6.4859   -2.3210    0.0000 H       1  UNL1        0.0235
     24 H           6.6250   -1.8019    0.0000 H       1  UNL1        0.0235
     25 H           6.8520   -0.9550    0.0000 H       1  UNL1        0.0235
     26 H           6.0050   -0.7280    0.0000 H       1  UNL1        0.0235
     27 H           1.4174   -2.2923    0.0000 H       1  UNL1        0.0572
     28 H           2.2443   -3.6605    0.0000 H       1  UNL1        0.0274
     29 H           2.8856   -4.2585    0.0000 H       1  UNL1        0.0274
     30 H           3.4836   -3.6172    0.0000 H       1  UNL1        0.0274
     31 H           2.5973    3.1714    0.0000 H       1  UNL1        0.0375
     32 H           2.5973    2.3743    0.0000 H       1  UNL1        0.0375
     33 H           4.1092    3.3288    0.0000 H       1  UNL1        0.0235
     34 H           3.8823    4.1758    0.0000 H       1  UNL1        0.0235
     35 H           3.0353    3.9488    0.0000 H       1  UNL1        0.0235
@<TRIPOS>BOND
     1     1     6    1
     2     1    13    1
     3     2    13    2
     4     3     4    1
     5     3     5    1
     6     3     9    1
     7     3    10    1
     8     4     6    1
     9     4     7    1
    10     4    16    1
    11     5     6    1
    12     5     8    1
    13     5    17    1
    14     6    18    1
    15     7    11    1
    16     7    19    1
    17     7    20    1
    18     8    11    2
    19     8    12    1
    20     9    21    1
    21     9    22    1
    22     9    23    1
    23    10    24    1
    24    10    25    1
    25    10    26    1
    26    11    27    1
    27    12    28    1
    28    12    29    1
    29    12    30    1
    30    13    14    1
    31    14    15    1
    32    14    31    1
    33    14    32    1
    34    15    33    1
    35    15    34    1
    36    15    35    1
