@<TRIPOS>MOLECULE
IMPHY007822
 32 33 0 0 0
SMALL
GASTEIGER

@<TRIPOS>ATOM
      1 O           5.2619   -0.6815    0.0000 O.3     1  UNL1       -0.4606
      2 O           4.9889   -2.4367    0.0000 O.2     1  UNL1       -0.2502
      3 C           3.7320   -0.1815    0.0000 C.3     1  UNL1        0.0128
      4 C           4.6783    0.1233    0.0000 C.3     1  UNL1        0.1069
      5 C           3.7320   -1.1815    0.0000 C.3     1  UNL1        0.0807
      6 C           2.8660    0.3185    0.0000 C.3     1  UNL1       -0.0424
      7 C           4.9889    1.0738    0.0000 C.3     1  UNL1       -0.0154
      8 C           2.0000   -0.1815    0.0000 C.3     1  UNL1       -0.0343
      9 C           4.6783   -1.4862    0.0000 C.2     1  UNL1        0.3147
     10 C           2.8660   -1.6815    0.0000 C.2     1  UNL1       -0.0740
     11 C           5.9674    1.2800    0.0000 C.3     1  UNL1       -0.0500
     12 C           2.0000   -1.1815    0.0000 C.2     1  UNL1       -0.0871
     13 C           6.2781    2.2305    0.0000 C.3     1  UNL1       -0.0558
     14 C           7.2566    2.4367    0.0000 C.3     1  UNL1       -0.0653
     15 H           3.8220    0.6637    0.0000 H       1  UNL1        0.0347
     16 H           5.2908    0.2194    0.0000 H       1  UNL1        0.0737
     17 H           3.8220   -2.0267    0.0000 H       1  UNL1        0.0460
     18 H           3.2646    0.7935    0.0000 H       1  UNL1        0.0272
     19 H           2.4675    0.7935    0.0000 H       1  UNL1        0.0272
     20 H           4.9684    1.6934    0.0000 H       1  UNL1        0.0301
     21 H           4.3751    1.1611    0.0000 H       1  UNL1        0.0301
     22 H           1.7880    0.4011    0.0000 H       1  UNL1        0.0307
     23 H           1.3894   -0.2891    0.0000 H       1  UNL1        0.0307
     24 H           2.8660   -2.3015    0.0000 H       1  UNL1        0.0577
     25 H           5.9880    0.6603    0.0000 H       1  UNL1        0.0266
     26 H           6.5812    1.1926    0.0000 H       1  UNL1        0.0266
     27 H           1.4631   -1.4915    0.0000 H       1  UNL1        0.0569
     28 H           6.2575    2.8502    0.0000 H       1  UNL1        0.0263
     29 H           5.6643    2.3179    0.0000 H       1  UNL1        0.0263
     30 H           7.3845    1.8301    0.0000 H       1  UNL1        0.0230
     31 H           7.8633    2.5646    0.0000 H       1  UNL1        0.0230
     32 H           7.1288    3.0434    0.0000 H       1  UNL1        0.0230
@<TRIPOS>BOND
     1     1     4    1
     2     1     9    1
     3     2     9    2
     4     3     4    1
     5     3     5    1
     6     3     6    1
     7     3    15    1
     8     4     7    1
     9     4    16    1
    10     5     9    1
    11     5    10    1
    12     5    17    1
    13     6     8    1
    14     6    18    1
    15     6    19    1
    16     7    11    1
    17     7    20    1
    18     7    21    1
    19     8    12    1
    20     8    22    1
    21     8    23    1
    22    10    12    2
    23    10    24    1
    24    11    13    1
    25    11    25    1
    26    11    26    1
    27    12    27    1
    28    13    14    1
    29    13    28    1
    30    13    29    1
    31    14    30    1
    32    14    31    1
    33    14    32    1
