@<TRIPOS>MOLECULE
IMPHY003742
 52 55 0 0 0
SMALL
GASTEIGER

@<TRIPOS>ATOM
      1 O           6.6493    2.4325    0.0000 O.3     1  UNL1       -0.4677
      2 O           5.5659    3.3416    0.0000 O.2     1  UNL1       -0.2505
      3 O           2.0000    0.5152    0.0000 O.2     1  UNL1       -0.2905
      4 N           6.2862    1.2569    0.0000 N.3     1  UNL1       -0.3010
      5 N           2.7390   -1.1663    0.0000 N.ar    1  UNL1       -0.3517
      6 C           4.3066    1.8217    0.0000 C.3     1  UNL1       -0.0156
      7 C           5.2304    1.4391    0.0000 C.3     1  UNL1        0.0757
      8 C           5.0483    2.4949    0.0000 C.3     1  UNL1       -0.0245
      9 C           5.6131    0.5152    0.0000 C.3     1  UNL1        0.0273
     10 C           6.0114    2.2200    0.0000 C.3     1  UNL1        0.0020
     11 C           3.3827    1.4391    0.0000 C.3     1  UNL1        0.0159
     12 C           5.2304   -0.4087    0.0000 C.3     1  UNL1       -0.0086
     13 C           4.8208    3.4686    0.0000 C.3     1  UNL1       -0.0516
     14 C           4.3066   -0.7914    0.0000 C.ar    1  UNL1       -0.0101
     15 C           5.6531    2.3454    0.0000 C.2     1  UNL1        0.3118
     16 C           3.0000    0.5152    0.0000 C.2     1  UNL1        0.1797
     17 C           3.3827   -0.4087    0.0000 C.ar    1  UNL1        0.0865
     18 C           7.2600    1.0294    0.0000 C.3     1  UNL1       -0.0124
     19 C           3.8637    3.7585    0.0000 C.3     1  UNL1       -0.0650
     20 C           4.2260   -1.7822    0.0000 C.ar    1  UNL1        0.0036
     21 C           3.2592   -2.0134    0.0000 C.ar    1  UNL1        0.0472
     22 C           4.9496   -2.5228    0.0000 C.ar    1  UNL1       -0.0523
     23 C           2.9490   -3.0013    0.0000 C.ar    1  UNL1       -0.0378
     24 C           7.0719    3.3388    0.0000 C.3     1  UNL1        0.0817
     25 C           4.6623   -3.5176    0.0000 C.ar    1  UNL1       -0.0611
     26 C           3.6553   -3.7585    0.0000 C.ar    1  UNL1       -0.0598
     27 H           3.8516    2.5397    0.0000 H       1  UNL1        0.0316
     28 H           5.8503    1.4255    0.0000 H       1  UNL1        0.0432
     29 H           5.4972    2.9225    0.0000 H       1  UNL1        0.0316
     30 H           6.3311    0.0602    0.0000 H       1  UNL1        0.0474
     31 H           6.6288    2.2774    0.0000 H       1  UNL1        0.0429
     32 H           6.0688    2.8374    0.0000 H       1  UNL1        0.0429
     33 H           3.3018    2.0538    0.0000 H       1  UNL1        0.0349
     34 H           2.7680    1.5200    0.0000 H       1  UNL1        0.0349
     35 H           5.3114   -1.0234    0.0000 H       1  UNL1        0.0329
     36 H           5.8451   -0.4896    0.0000 H       1  UNL1        0.0329
     37 H           5.4398    3.5027    0.0000 H       1  UNL1        0.0266
     38 H           4.8947    4.0842    0.0000 H       1  UNL1        0.0266
     39 H           7.1190    0.4256    0.0000 H       1  UNL1        0.0391
     40 H           7.8638    0.8883    0.0000 H       1  UNL1        0.0391
     41 H           7.4011    1.6331    0.0000 H       1  UNL1        0.0391
     42 H           4.0434    4.3519    0.0000 H       1  UNL1        0.0230
     43 H           3.2703    3.9382    0.0000 H       1  UNL1        0.0230
     44 H           3.6840    3.1651    0.0000 H       1  UNL1        0.0230
     45 H           2.1209   -1.1187    0.0000 H       1  UNL1        0.1660
     46 H           5.5509   -2.3717    0.0000 H       1  UNL1        0.0624
     47 H           2.3444   -3.1386    0.0000 H       1  UNL1        0.0638
     48 H           7.6338    3.0768    0.0000 H       1  UNL1        0.0661
     49 H           7.3339    3.9007    0.0000 H       1  UNL1        0.0661
     50 H           6.5100    3.6008    0.0000 H       1  UNL1        0.0661
     51 H           5.0904   -3.9661    0.0000 H       1  UNL1        0.0618
     52 H           3.4764   -4.3521    0.0000 H       1  UNL1        0.0618
@<TRIPOS>BOND
     1     1    15    1
     2     1    24    1
     3     2    15    2
     4     3    16    2
     5     4     9    1
     6     4    10    1
     7     4    18    1
     8     5    17   ar
     9     5    21   ar
    10     5    45    1
    11     6     7    1
    12     6     8    1
    13     6    11    1
    14     6    27    1
    15     7     9    1
    16     7    15    1
    17     7    28    1
    18     8    10    1
    19     8    13    1
    20     8    29    1
    21     9    12    1
    22     9    30    1
    23    10    31    1
    24    10    32    1
    25    11    16    1
    26    11    33    1
    27    11    34    1
    28    12    14    1
    29    12    35    1
    30    12    36    1
    31    13    19    1
    32    13    37    1
    33    13    38    1
    34    14    17   ar
    35    14    20   ar
    36    16    17    1
    37    18    39    1
    38    18    40    1
    39    18    41    1
    40    19    42    1
    41    19    43    1
    42    19    44    1
    43    20    21   ar
    44    20    22   ar
    45    21    23   ar
    46    22    25   ar
    47    22    46    1
    48    23    26   ar
    49    23    47    1
    50    24    48    1
    51    24    49    1
    52    24    50    1
    53    25    26   ar
    54    25    51    1
    55    26    52    1
