@<TRIPOS>MOLECULE
IMPHY014797
 206 217 0 0 0
SMALL
GASTEIGER

@<TRIPOS>ATOM
      1 O           5.1023    3.6843    0.0000 O.3     1  UNL1       -0.3449
      2 O          11.6659   -2.9963    0.0000 O.3     1  UNL1       -0.4318
      3 O          10.3843   -2.3986    0.0000 O.2     1  UNL1       -0.2501
      4 O           4.2537    5.1942    0.0000 O.3     1  UNL1       -0.3315
      5 O           6.8458    4.6642    0.0000 O.3     1  UNL1       -0.3841
      6 O          12.6507   -2.1700    0.0000 O.3     1  UNL1       -0.3368
      7 O           6.8689    6.6641    0.0000 O.3     1  UNL1       -0.3400
      8 O          13.5168   -4.6700    0.0000 O.3     1  UNL1       -0.3366
      9 O           5.1486    7.6840    0.0000 O.3     1  UNL1       -0.3860
     10 O          15.2488   -3.6700    0.0000 O.3     1  UNL1       -0.3864
     11 O          15.2488   -1.6700    0.0000 O.3     1  UNL1       -0.3869
     12 O           2.5333    6.2142    0.0000 O.3     1  UNL1       -0.4788
     13 O           3.4166    7.7040    0.0000 O.2     1  UNL1       -0.2480
     14 O           6.0203    8.1740    0.0000 O.3     1  UNL1       -0.3461
     15 O          11.7847   -4.6700    0.0000 O.3     1  UNL1       -0.3431
     16 O           8.6124    7.6440    0.0000 O.3     1  UNL1       -0.3841
     17 O          13.5168   -6.6700    0.0000 O.3     1  UNL1       -0.3841
     18 O           8.6356    9.6438    0.0000 O.3     1  UNL1       -0.3864
     19 O          11.7847   -7.6700    0.0000 O.3     1  UNL1       -0.3401
     20 O           6.9152   10.6638    0.0000 O.3     1  UNL1       -0.3869
     21 O          10.0527   -6.6700    0.0000 O.3     1  UNL1       -0.3402
     22 O          10.0527   -7.6700    0.0000 O.3     1  UNL1       -0.3461
     23 O           9.1866   -5.1700    0.0000 O.3     1  UNL1       -0.3461
     24 O          11.7847   -9.6700    0.0000 O.3     1  UNL1       -0.3841
     25 O           8.3206   -7.6700    0.0000 O.3     1  UNL1       -0.3841
     26 O          10.0527  -10.6700    0.0000 O.3     1  UNL1       -0.3864
     27 O           6.5886   -6.6700    0.0000 O.3     1  UNL1       -0.3401
     28 O           8.3206   -9.6700    0.0000 O.3     1  UNL1       -0.3869
     29 O           6.5886   -4.6700    0.0000 O.3     1  UNL1       -0.3868
     30 O           5.7225   -5.1700    0.0000 O.3     1  UNL1       -0.3461
     31 O           4.8565   -7.6700    0.0000 O.3     1  UNL1       -0.3841
     32 O           3.1245   -6.6700    0.0000 O.3     1  UNL1       -0.3864
     33 O           3.1245   -4.6700    0.0000 O.3     1  UNL1       -0.3869
     34 C           8.6858    0.5122    0.0000 C.3     1  UNL1       -0.0194
     35 C           8.6936    1.5122    0.0000 C.3     1  UNL1       -0.0257
     36 C           7.8038    2.0537    0.0000 C.3     1  UNL1       -0.0250
     37 C           9.5480    0.0055    0.0000 C.3     1  UNL1       -0.0051
     38 C           6.8938    1.5469    0.0000 C.3     1  UNL1       -0.0278
     39 C           7.7879   -0.0155    0.0000 C.3     1  UNL1       -0.0463
     40 C           5.9542    2.0894    0.0000 C.3     1  UNL1       -0.0052
     41 C           6.8858    0.5053    0.0000 C.3     1  UNL1       -0.0486
     42 C          10.4178    0.4988    0.0000 C.2     1  UNL1       -0.0629
     43 C          11.3239   -0.0150    0.0000 C.3     1  UNL1       -0.0031
     44 C           9.5634    2.0055    0.0000 C.3     1  UNL1       -0.0306
     45 C           7.8372    3.1382    0.0000 C.3     1  UNL1       -0.0447
     46 C           9.5240   -1.0358    0.0000 C.3     1  UNL1       -0.0424
     47 C          11.3239   -1.0566    0.0000 C.3     1  UNL1        0.0744
     48 C           8.3367   -0.4248    0.0000 C.3     1  UNL1       -0.0585
     49 C           5.9625    3.1743    0.0000 C.3     1  UNL1        0.0672
     50 C          10.4179   -1.5704    0.0000 C.3     1  UNL1       -0.0359
     51 C           8.6774    2.5403    0.0000 C.3     1  UNL1       -0.0590
     52 C          10.4256    1.4988    0.0000 C.2     1  UNL1       -0.0836
     53 C           6.9104    3.7023    0.0000 C.3     1  UNL1       -0.0255
     54 C           8.8993   -0.7554    0.0000 C.3     1  UNL1       -0.0553
     55 C          12.2551    0.5419    0.0000 C.3     1  UNL1       -0.0403
     56 C          12.2551   -1.6136    0.0000 C.3     1  UNL1       -0.0362
     57 C          13.1989    0.0067    0.0000 C.3     1  UNL1       -0.0343
     58 C           4.9542    2.0933    0.0000 C.3     1  UNL1       -0.0572
     59 C           5.4508    1.2253    0.0000 C.3     1  UNL1       -0.0572
     60 C          13.1989   -1.0783    0.0000 C.3     1  UNL1       -0.0468
     61 C          11.3240   -2.0566    0.0000 C.2     1  UNL1        0.3161
     62 C          13.6955    0.8746    0.0000 C.3     1  UNL1       -0.0598
     63 C          14.1989    0.0105    0.0000 C.3     1  UNL1       -0.0598
     64 C           5.1139    4.6842    0.0000 C.3     1  UNL1        0.1888
     65 C           5.9856    5.1742    0.0000 C.3     1  UNL1        0.1345
     66 C          12.6507   -3.1700    0.0000 C.3     1  UNL1        0.2338
     67 C           5.9972    6.1741    0.0000 C.3     1  UNL1        0.1211
     68 C           4.2652    6.1941    0.0000 C.3     1  UNL1        0.1859
     69 C           5.1370    6.6841    0.0000 C.3     1  UNL1        0.1205
     70 C          13.5168   -3.6700    0.0000 C.3     1  UNL1        0.1520
     71 C          14.3828   -3.1700    0.0000 C.3     1  UNL1        0.1152
     72 C          13.5168   -1.6700    0.0000 C.3     1  UNL1        0.0802
     73 C          14.3828   -2.1700    0.0000 C.3     1  UNL1        0.1070
     74 C           3.4051    6.7041    0.0000 C.2     1  UNL1        0.3367
     75 C           6.8805    7.6640    0.0000 C.3     1  UNL1        0.1880
     76 C          12.6507   -5.1700    0.0000 C.3     1  UNL1        0.1885
     77 C           7.7522    8.1540    0.0000 C.3     1  UNL1        0.1341
     78 C          12.6507   -6.1700    0.0000 C.3     1  UNL1        0.1345
     79 C           7.7638    9.1539    0.0000 C.3     1  UNL1        0.1137
     80 C          11.7847   -6.6700    0.0000 C.3     1  UNL1        0.1208
     81 C           6.0319    9.1739    0.0000 C.3     1  UNL1        0.0792
     82 C           6.9036    9.6639    0.0000 C.3     1  UNL1        0.1069
     83 C          10.9187   -5.1700    0.0000 C.3     1  UNL1        0.0877
     84 C          10.9187   -6.1700    0.0000 C.3     1  UNL1        0.1164
     85 C          10.0527   -4.6700    0.0000 C.3     1  UNL1       -0.0360
     86 C          10.9187   -8.1700    0.0000 C.3     1  UNL1        0.1880
     87 C           9.1866   -6.1700    0.0000 C.3     1  UNL1        0.1880
     88 C          10.9187   -9.1700    0.0000 C.3     1  UNL1        0.1341
     89 C           8.3206   -6.6700    0.0000 C.3     1  UNL1        0.1345
     90 C          10.0527   -9.6700    0.0000 C.3     1  UNL1        0.1137
     91 C           7.4546   -6.1700    0.0000 C.3     1  UNL1        0.1202
     92 C           9.1866   -8.1700    0.0000 C.3     1  UNL1        0.0792
     93 C           9.1866   -9.1700    0.0000 C.3     1  UNL1        0.1069
     94 C           8.3206   -4.6700    0.0000 C.3     1  UNL1        0.0792
     95 C           7.4546   -5.1700    0.0000 C.3     1  UNL1        0.1073
     96 C           5.7225   -6.1700    0.0000 C.3     1  UNL1        0.1880
     97 C           4.8565   -6.6700    0.0000 C.3     1  UNL1        0.1341
     98 C           3.9905   -6.1700    0.0000 C.3     1  UNL1        0.1137
     99 C           4.8565   -4.6700    0.0000 C.3     1  UNL1        0.0792
    100 C           3.9905   -5.1700    0.0000 C.3     1  UNL1        0.1069
    101 H           9.4264    1.0815    0.0000 H       1  UNL1        0.0315
    102 H           6.1561    1.1248    0.0000 H       1  UNL1        0.0312
    103 H           7.3906   -0.4915    0.0000 H       1  UNL1        0.0271
    104 H           8.1888   -0.4884    0.0000 H       1  UNL1        0.0271
    105 H           6.2758    0.6161    0.0000 H       1  UNL1        0.0268
    106 H           6.6722   -0.0767    0.0000 H       1  UNL1        0.0268
    107 H          12.0633   -0.4343    0.0000 H       1  UNL1        0.0357
    108 H           9.9656    2.4773    0.0000 H       1  UNL1        0.0310
    109 H           9.1686    2.4835    0.0000 H       1  UNL1        0.0310
    110 H           8.4445    3.0133    0.0000 H       1  UNL1        0.0271
    111 H           8.0642    3.7151    0.0000 H       1  UNL1        0.0271
    112 H           8.9157   -0.9156    0.0000 H       1  UNL1        0.0274
    113 H           9.3015   -1.6145    0.0000 H       1  UNL1        0.0274
    114 H           7.7558   -0.2083    0.0000 H       1  UNL1        0.0235
    115 H           8.1203   -1.0058    0.0000 H       1  UNL1        0.0235
    116 H           8.9177   -0.6413    0.0000 H       1  UNL1        0.0235
    117 H           5.4226    2.8695    0.0000 H       1  UNL1        0.0602
    118 H          10.0133   -2.0402    0.0000 H       1  UNL1        0.0276
    119 H          10.8115   -2.0494    0.0000 H       1  UNL1        0.0276
    120 H           8.9791    1.9986    0.0000 H       1  UNL1        0.0235
    121 H           9.2190    2.8420    0.0000 H       1  UNL1        0.0235
    122 H           8.3757    3.0819    0.0000 H       1  UNL1        0.0235
    123 H          10.9649    1.8047    0.0000 H       1  UNL1        0.0572
    124 H           7.3186    4.1689    0.0000 H       1  UNL1        0.0290
    125 H           6.5205    4.1843    0.0000 H       1  UNL1        0.0290
    126 H           8.4275   -0.3532    0.0000 H       1  UNL1        0.0238
    127 H           8.4971   -1.2273    0.0000 H       1  UNL1        0.0238
    128 H           9.3712   -1.1576    0.0000 H       1  UNL1        0.0238
    129 H          12.6487    1.0209    0.0000 H       1  UNL1        0.0276
    130 H          11.8505    1.0117    0.0000 H       1  UNL1        0.0276
    131 H          11.8505   -2.0833    0.0000 H       1  UNL1        0.0276
    132 H          12.6487   -2.0926    0.0000 H       1  UNL1        0.0276
    133 H           4.9566    2.7133    0.0000 H       1  UNL1        0.0236
    134 H           4.3342    2.0957    0.0000 H       1  UNL1        0.0236
    135 H           4.9518    1.4733    0.0000 H       1  UNL1        0.0236
    136 H           4.9151    1.5374    0.0000 H       1  UNL1        0.0236
    137 H           5.1388    0.6896    0.0000 H       1  UNL1        0.0236
    138 H           5.9866    0.9133    0.0000 H       1  UNL1        0.0236
    139 H          13.4079   -1.6620    0.0000 H       1  UNL1        0.0271
    140 H          13.8097   -0.9722    0.0000 H       1  UNL1        0.0271
    141 H          14.2336    0.5667    0.0000 H       1  UNL1        0.0235
    142 H          14.0034    1.4127    0.0000 H       1  UNL1        0.0235
    143 H          13.1574    1.1826    0.0000 H       1  UNL1        0.0235
    144 H          14.2012   -0.6095    0.0000 H       1  UNL1        0.0235
    145 H          14.8188    0.0129    0.0000 H       1  UNL1        0.0235
    146 H          14.1965    0.6305    0.0000 H       1  UNL1        0.0235
    147 H           5.6472    4.3680    0.0000 H       1  UNL1        0.0938
    148 H           6.5261    5.4780    0.0000 H       1  UNL1        0.0671
    149 H          12.4387   -3.7526    0.0000 H       1  UNL1        0.1085
    150 H           6.0043    6.7941    0.0000 H       1  UNL1        0.0652
    151 H           3.7248    5.8904    0.0000 H       1  UNL1        0.0741
    152 H           4.6037    7.0003    0.0000 H       1  UNL1        0.0652
    153 H          12.9798   -3.9800    0.0000 H       1  UNL1        0.0687
    154 H           7.3863    4.9680    0.0000 H       1  UNL1        0.2101
    155 H          14.9197   -2.8600    0.0000 H       1  UNL1        0.0648
    156 H          13.9153   -1.1950    0.0000 H       1  UNL1        0.0588
    157 H          13.1182   -1.1950    0.0000 H       1  UNL1        0.0588
    158 H          14.3828   -1.5500    0.0000 H       1  UNL1        0.0643
    159 H           4.6152    8.0002    0.0000 H       1  UNL1        0.2100
    160 H           6.3400    7.3602    0.0000 H       1  UNL1        0.0937
    161 H          13.1877   -5.4800    0.0000 H       1  UNL1        0.0938
    162 H          15.7858   -3.3600    0.0000 H       1  UNL1        0.2100
    163 H           8.2927    8.4577    0.0000 H       1  UNL1        0.0671
    164 H          15.2488   -1.0500    0.0000 H       1  UNL1        0.2100
    165 H           2.0000    6.5304    0.0000 H       1  UNL1        0.2951
    166 H          12.6507   -6.7900    0.0000 H       1  UNL1        0.0671
    167 H           7.7710    9.7738    0.0000 H       1  UNL1        0.0647
    168 H          11.2478   -6.9800    0.0000 H       1  UNL1        0.0651
    169 H           5.8266    9.7589    0.0000 H       1  UNL1        0.0587
    170 H           5.4201    9.0733    0.0000 H       1  UNL1        0.0587
    171 H           6.3703    9.9800    0.0000 H       1  UNL1        0.0643
    172 H          10.9187   -4.5500    0.0000 H       1  UNL1        0.0621
    173 H          10.3818   -5.8600    0.0000 H       1  UNL1        0.0650
    174 H           9.1529    7.9477    0.0000 H       1  UNL1        0.2101
    175 H          14.0537   -6.3600    0.0000 H       1  UNL1        0.2101
    176 H           8.6427   10.2638    0.0000 H       1  UNL1        0.2100
    177 H          10.3627   -4.1330    0.0000 H       1  UNL1        0.0255
    178 H           9.5157   -4.3600    0.0000 H       1  UNL1        0.0255
    179 H           9.7427   -5.2069    0.0000 H       1  UNL1        0.0255
    180 H           6.3819   10.9800    0.0000 H       1  UNL1        0.2100
    181 H          10.9187   -7.5500    0.0000 H       1  UNL1        0.0937
    182 H           9.1866   -6.7900    0.0000 H       1  UNL1        0.0937
    183 H          10.9187   -9.7900    0.0000 H       1  UNL1        0.0671
    184 H           7.7837   -6.9800    0.0000 H       1  UNL1        0.0671
    185 H           9.5157   -9.9800    0.0000 H       1  UNL1        0.0647
    186 H           6.9177   -5.8600    0.0000 H       1  UNL1        0.0651
    187 H           8.9746   -7.5874    0.0000 H       1  UNL1        0.0587
    188 H           8.5761   -8.2776    0.0000 H       1  UNL1        0.0587
    189 H           8.6497   -8.8600    0.0000 H       1  UNL1        0.0643
    190 H           8.7192   -4.1950    0.0000 H       1  UNL1        0.0587
    191 H           7.9221   -4.1950    0.0000 H       1  UNL1        0.0587
    192 H           7.4546   -4.5500    0.0000 H       1  UNL1        0.0643
    193 H          11.7847  -10.2900    0.0000 H       1  UNL1        0.2101
    194 H           7.7837   -7.9800    0.0000 H       1  UNL1        0.2101
    195 H           9.5157  -10.9800    0.0000 H       1  UNL1        0.2100
    196 H           7.7837   -9.3600    0.0000 H       1  UNL1        0.2100
    197 H           6.5886   -4.0500    0.0000 H       1  UNL1        0.2100
    198 H           5.7225   -6.7900    0.0000 H       1  UNL1        0.0937
    199 H           4.3196   -6.9800    0.0000 H       1  UNL1        0.0671
    200 H           3.4536   -5.8600    0.0000 H       1  UNL1        0.0647
    201 H           5.2550   -4.1950    0.0000 H       1  UNL1        0.0587
    202 H           4.4580   -4.1950    0.0000 H       1  UNL1        0.0587
    203 H           3.9905   -4.5500    0.0000 H       1  UNL1        0.0643
    204 H           4.3196   -7.9800    0.0000 H       1  UNL1        0.2101
    205 H           2.5875   -6.3600    0.0000 H       1  UNL1        0.2100
    206 H           2.5875   -4.9800    0.0000 H       1  UNL1        0.2100
@<TRIPOS>BOND
     1     1    49    1
     2    64     1    1
     3     2    61    1
     4    66     2    1
     5     3    61    2
     6     4    64    1
     7     4    68    1
     8    65     5    1
     9     5   154    1
    10     6    66    1
    11     6    72    1
    12    67     7    1
    13    75     7    1
    14    70     8    1
    15    76     8    1
    16    69     9    1
    17     9   159    1
    18    71    10    1
    19    10   162    1
    20    73    11    1
    21    11   164    1
    22    12    74    1
    23    12   165    1
    24    13    74    2
    25    14    75    1
    26    14    81    1
    27    15    76    1
    28    15    83    1
    29    77    16    1
    30    16   174    1
    31    78    17    1
    32    17   175    1
    33    79    18    1
    34    18   176    1
    35    80    19    1
    36    86    19    1
    37    82    20    1
    38    20   180    1
    39    84    21    1
    40    87    21    1
    41    22    86    1
    42    22    92    1
    43    23    87    1
    44    23    94    1
    45    88    24    1
    46    24   193    1
    47    89    25    1
    48    25   194    1
    49    90    26    1
    50    26   195    1
    51    91    27    1
    52    96    27    1
    53    93    28    1
    54    28   196    1
    55    95    29    1
    56    29   197    1
    57    30    96    1
    58    30    99    1
    59    97    31    1
    60    31   204    1
    61    98    32    1
    62    32   205    1
    63   100    33    1
    64    33   206    1
    65    34    35    1
    66    34    37    1
    67    34    39    1
    68    34    48    1
    69    35    36    1
    70    35    44    1
    71    35   101    1
    72    36    38    1
    73    36    45    1
    74    36    51    1
    75    37    42    1
    76    37    46    1
    77    37    54    1
    78    38    40    1
    79    38    41    1
    80    38   102    1
    81    39    41    1
    82    39   103    1
    83    39   104    1
    84    40    49    1
    85    40    58    1
    86    40    59    1
    87    41   105    1
    88    41   106    1
    89    42    43    1
    90    42    52    2
    91    43    47    1
    92    43    55    1
    93    43   107    1
    94    44    52    1
    95    44   108    1
    96    44   109    1
    97    45    53    1
    98    45   110    1
    99    45   111    1
   100    46    50    1
   101    46   112    1
   102    46   113    1
   103    47    50    1
   104    47    56    1
   105    47    61    1
   106    48   114    1
   107    48   115    1
   108    48   116    1
   109    49    53    1
   110    49   117    1
   111    50   118    1
   112    50   119    1
   113    51   120    1
   114    51   121    1
   115    51   122    1
   116    52   123    1
   117    53   124    1
   118    53   125    1
   119    54   126    1
   120    54   127    1
   121    54   128    1
   122    55    57    1
   123    55   129    1
   124    55   130    1
   125    56    60    1
   126    56   131    1
   127    56   132    1
   128    57    60    1
   129    57    62    1
   130    57    63    1
   131    58   133    1
   132    58   134    1
   133    58   135    1
   134    59   136    1
   135    59   137    1
   136    59   138    1
   137    60   139    1
   138    60   140    1
   139    62   141    1
   140    62   142    1
   141    62   143    1
   142    63   144    1
   143    63   145    1
   144    63   146    1
   145    64    65    1
   146    64   147    1
   147    65    67    1
   148    65   148    1
   149    66    70    1
   150    66   149    1
   151    67    69    1
   152    67   150    1
   153    68    69    1
   154    68    74    1
   155    68   151    1
   156    69   152    1
   157    70    71    1
   158    70   153    1
   159    71    73    1
   160    71   155    1
   161    72    73    1
   162    72   156    1
   163    72   157    1
   164    73   158    1
   165    75    77    1
   166    75   160    1
   167    76    78    1
   168    76   161    1
   169    77    79    1
   170    77   163    1
   171    78    80    1
   172    78   166    1
   173    79    82    1
   174    79   167    1
   175    80    84    1
   176    80   168    1
   177    81    82    1
   178    81   169    1
   179    81   170    1
   180    82   171    1
   181    83    84    1
   182    83    85    1
   183    83   172    1
   184    84   173    1
   185    85   177    1
   186    85   178    1
   187    85   179    1
   188    86    88    1
   189    86   181    1
   190    87    89    1
   191    87   182    1
   192    88    90    1
   193    88   183    1
   194    89    91    1
   195    89   184    1
   196    90    93    1
   197    90   185    1
   198    91    95    1
   199    91   186    1
   200    92    93    1
   201    92   187    1
   202    92   188    1
   203    93   189    1
   204    94    95    1
   205    94   190    1
   206    94   191    1
   207    95   192    1
   208    96    97    1
   209    96   198    1
   210    97    98    1
   211    97   199    1
   212    98   100    1
   213    98   200    1
   214    99   100    1
   215    99   201    1
   216    99   202    1
   217   100   203    1
