@<TRIPOS>MOLECULE
IMPHY005375
 14 14 0 0 0
SMALL
GASTEIGER

@<TRIPOS>ATOM
      1 S           2.3660   -1.8294    0.0000 S.3     1  UNL1       -0.0923
      2 S           3.3660   -1.8294    0.0000 S.3     1  UNL1       -0.0923
      3 O           3.7320    1.2094    0.0000 O.3     1  UNL1       -0.4804
      4 O           2.0000    1.2094    0.0000 O.2     1  UNL1       -0.2506
      5 C           2.8660   -0.2906    0.0000 C.3     1  UNL1        0.0757
      6 C           2.0570   -0.8784    0.0000 C.3     1  UNL1        0.0176
      7 C           3.6750   -0.8784    0.0000 C.3     1  UNL1        0.0176
      8 C           2.8660    0.7094    0.0000 C.2     1  UNL1        0.3095
      9 H           3.4184   -0.0091    0.0000 H       1  UNL1        0.0430
     10 H           1.7470   -0.3414    0.0000 H       1  UNL1        0.0393
     11 H           1.4906   -1.1305    0.0000 H       1  UNL1        0.0393
     12 H           4.2414   -1.1305    0.0000 H       1  UNL1        0.0393
     13 H           3.9850   -0.3414    0.0000 H       1  UNL1        0.0393
     14 H           3.7320    1.8294    0.0000 H       1  UNL1        0.2951
@<TRIPOS>BOND
     1     1     2    1
     2     1     6    1
     3     2     7    1
     4     3     8    1
     5     3    14    1
     6     4     8    2
     7     5     6    1
     8     5     7    1
     9     5     8    1
    10     5     9    1
    11     6    10    1
    12     6    11    1
    13     7    12    1
    14     7    13    1
