@<TRIPOS>MOLECULE
IMPHY008128
 108 117 0 0 0
SMALL
GASTEIGER

@<TRIPOS>ATOM
      1 O           5.9860   -0.9347    0.0000 O.3     1  UNL1       -0.3374
      2 O           6.8680   -3.4762    0.0000 O.3     1  UNL1       -0.4512
      3 O           8.6382   -2.4793    0.0000 O.3     1  UNL1       -0.4501
      4 O           8.6540   -0.4311    0.0000 O.3     1  UNL1       -0.4487
      5 O           6.8802    0.5931    0.0000 O.3     1  UNL1       -0.3641
      6 O           4.8772   -3.4421    0.0000 O.3     1  UNL1       -0.4584
      7 O           5.8477   -5.1565    0.0000 O.2     1  UNL1       -0.2449
      8 O           9.5216   -0.9894    0.0000 O.2     1  UNL1       -0.2449
      9 O           7.7938    1.0722    0.0000 O.2     1  UNL1       -0.2448
     10 O           5.8772   -3.4421    0.0000 O.2     1  UNL1       -0.2449
     11 O           8.6656    2.5689    0.0000 O.3     1  UNL1       -0.4440
     12 O           6.3741   -7.8104    0.0000 O.3     1  UNL1       -0.5028
     13 O           5.3803   -7.8104    0.0000 O.3     1  UNL1       -0.5028
     14 O           9.4464   -6.0523    0.0000 O.3     1  UNL1       -0.5032
     15 O           8.4223   -7.8262    0.0000 O.3     1  UNL1       -0.5009
     16 O           6.9452    3.5597    0.0000 O.2     1  UNL1       -0.4178
     17 O           3.3321   -7.8262    0.0000 O.3     1  UNL1       -0.5009
     18 O           2.3079   -6.0523    0.0000 O.3     1  UNL1       -0.5032
     19 O          11.0434    3.3258    0.0000 O.3     1  UNL1       -0.5008
     20 O           7.8145    7.1321    0.0000 O.2     1  UNL1       -0.4178
     21 O          12.1220    0.5556    0.0000 O.3     1  UNL1       -0.5032
     22 O          12.9739   -2.0294    0.0000 O.3     1  UNL1       -0.5032
     23 O          11.2072   -5.0092    0.0000 O.3     1  UNL1       -0.5032
     24 O          12.1297    2.5555    0.0000 O.3     1  UNL1       -0.5008
     25 O          12.9507   -4.0293    0.0000 O.3     1  UNL1       -0.5009
     26 O          10.5207    4.2138    0.0000 O.3     1  UNL1       -0.5032
     27 O           6.0041    8.0601    0.0000 O.3     1  UNL1       -0.5009
     28 O           5.2132    3.5536    0.0000 O.2     1  UNL1       -0.2445
     29 O           9.5846    7.1142    0.0000 O.2     1  UNL1       -0.2445
     30 O           4.3183    7.0196    0.0000 O.3     1  UNL1       -0.5032
     31 C           6.8680   -2.4762    0.0000 C.3     1  UNL1        0.1729
     32 C           7.7780   -1.9694    0.0000 C.3     1  UNL1        0.1840
     33 C           6.0020   -1.9762    0.0000 C.3     1  UNL1        0.1361
     34 C           7.7861   -0.9277    0.0000 C.3     1  UNL1        0.1938
     35 C           6.8840   -0.4069    0.0000 C.3     1  UNL1        0.1981
     36 C           5.1360   -2.4762    0.0000 C.3     1  UNL1        0.1226
     37 C           6.3772   -4.3082    0.0000 C.2     1  UNL1        0.3405
     38 C           9.5100   -1.9894    0.0000 C.2     1  UNL1        0.3399
     39 C           8.6579    0.5689    0.0000 C.2     1  UNL1        0.3435
     40 C           6.8772   -5.1742    0.0000 C.ar    1  UNL1        0.0740
     41 C           5.3772   -4.3082    0.0000 C.2     1  UNL1        0.3401
     42 C           6.3772   -6.0402    0.0000 C.ar    1  UNL1        0.0458
     43 C           9.5258    1.0656    0.0000 C.ar    1  UNL1        0.1085
     44 C           4.8772   -5.1742    0.0000 C.ar    1  UNL1        0.0740
     45 C          10.3702   -2.4994    0.0000 C.ar    1  UNL1        0.0661
     46 C           5.3772   -6.0402    0.0000 C.ar    1  UNL1        0.0458
     47 C           7.9187   -5.1581    0.0000 C.ar    1  UNL1       -0.0017
     48 C           6.8840   -6.9502    0.0000 C.ar    1  UNL1        0.1708
     49 C           9.5297    2.0656    0.0000 C.ar    1  UNL1        0.1878
     50 C           4.8703   -6.9502    0.0000 C.ar    1  UNL1        0.1708
     51 C           3.8357   -5.1581    0.0000 C.ar    1  UNL1       -0.0017
     52 C          10.3899    0.5622    0.0000 C.ar    1  UNL1        0.0013
     53 C          10.3586   -3.4993    0.0000 C.ar    1  UNL1       -0.0023
     54 C          11.2419   -2.0094    0.0000 C.ar    1  UNL1       -0.0023
     55 C           8.4464   -6.0562    0.0000 C.ar    1  UNL1        0.1628
     56 C           7.9256   -6.9582    0.0000 C.ar    1  UNL1        0.2012
     57 C           3.8287   -6.9582    0.0000 C.ar    1  UNL1        0.2012
     58 C           3.3079   -6.0562    0.0000 C.ar    1  UNL1        0.1628
     59 C          10.3976    2.5622    0.0000 C.ar    1  UNL1        0.2060
     60 C          11.2579    1.0589    0.0000 C.ar    1  UNL1        0.1630
     61 C           7.8059    5.0628    0.0000 C.ar    1  UNL1        0.0468
     62 C          12.1021   -2.5194    0.0000 C.ar    1  UNL1        0.1628
     63 C          11.2188   -4.0093    0.0000 C.ar    1  UNL1        0.1628
     64 C           8.6694    3.5689    0.0000 C.ar    1  UNL1        0.2125
     65 C          11.2617    2.0589    0.0000 C.ar    1  UNL1        0.2044
     66 C           7.8095    4.0628    0.0000 C.ar    1  UNL1        0.1862
     67 C           6.9381    5.5597    0.0000 C.ar    1  UNL1        0.0468
     68 C          12.0905   -3.5193    0.0000 C.ar    1  UNL1        0.2006
     69 C           8.7141    5.5728    0.0000 C.ar    1  UNL1        0.0744
     70 C           6.0739    5.0566    0.0000 C.ar    1  UNL1        0.0744
     71 C           9.5332    4.0561    0.0000 C.ar    1  UNL1        0.1636
     72 C           6.9184    6.6011    0.0000 C.ar    1  UNL1        0.1854
     73 C           9.5553    5.0476    0.0000 C.ar    1  UNL1       -0.0017
     74 C           6.0774    4.0566    0.0000 C.ar    1  UNL1        0.3454
     75 C           8.7185    6.6144    0.0000 C.ar    1  UNL1        0.3454
     76 C           5.2127    5.5483    0.0000 C.ar    1  UNL1       -0.0017
     77 C           6.0396    7.0608    0.0000 C.ar    1  UNL1        0.2022
     78 C           5.1957    6.5399    0.0000 C.ar    1  UNL1        0.1628
     79 H           7.6009   -2.9069    0.0000 H       1  UNL1        0.0801
     80 H           7.7697   -2.5893    0.0000 H       1  UNL1        0.0812
     81 H           5.2626   -1.5569    0.0000 H       1  UNL1        0.0670
     82 H           8.3212   -1.2408    0.0000 H       1  UNL1        0.0825
     83 H           7.4203   -0.0959    0.0000 H       1  UNL1        0.0948
     84 H           4.9755   -1.8773    0.0000 H       1  UNL1        0.0725
     85 H           4.5160   -2.4762    0.0000 H       1  UNL1        0.0725
     86 H           6.3420    0.9010    0.0000 H       1  UNL1        0.2126
     87 H           8.2225   -4.6176    0.0000 H       1  UNL1        0.0664
     88 H           3.5319   -4.6176    0.0000 H       1  UNL1        0.0664
     89 H          10.3875   -0.0578    0.0000 H       1  UNL1        0.0665
     90 H           9.8181   -3.8031    0.0000 H       1  UNL1        0.0663
     91 H          11.2491   -1.3894    0.0000 H       1  UNL1        0.0663
     92 H           6.6778   -8.3509    0.0000 H       1  UNL1        0.2923
     93 H          10.1008    5.3422    0.0000 H       1  UNL1        0.0664
     94 H           5.0766   -8.3509    0.0000 H       1  UNL1        0.2923
     95 H           9.7544   -5.5142    0.0000 H       1  UNL1        0.2923
     96 H           9.0423   -7.8286    0.0000 H       1  UNL1        0.2924
     97 H           4.6792    5.2325    0.0000 H       1  UNL1        0.0664
     98 H           2.7121   -7.8286    0.0000 H       1  UNL1        0.2924
     99 H           2.0000   -5.5142    0.0000 H       1  UNL1        0.2923
    100 H          11.6535    3.2158    0.0000 H       1  UNL1        0.2924
    101 H          12.6601    0.8635    0.0000 H       1  UNL1        0.2923
    102 H          13.5072   -2.3456    0.0000 H       1  UNL1        0.2923
    103 H          11.7405   -5.3254    0.0000 H       1  UNL1        0.2923
    104 H          12.6654    2.2435    0.0000 H       1  UNL1        0.2924
    105 H          13.4912   -3.7255    0.0000 H       1  UNL1        0.2924
    106 H          10.7421    4.7930    0.0000 H       1  UNL1        0.2923
    107 H           5.4565    8.3509    0.0000 H       1  UNL1        0.2924
    108 H           3.7887    6.6972    0.0000 H       1  UNL1        0.2923
@<TRIPOS>BOND
     1     1    33    1
     2     1    35    1
     3     2    31    1
     4     2    37    1
     5    32     3    1
     6     3    38    1
     7    34     4    1
     8     4    39    1
     9     5    35    1
    10     5    86    1
    11     6    36    1
    12     6    41    1
    13     7    37    2
    14     8    38    2
    15     9    39    2
    16    10    41    2
    17    11    49    1
    18    11    64    1
    19    12    48    1
    20    12    92    1
    21    13    50    1
    22    13    94    1
    23    14    55    1
    24    14    95    1
    25    15    56    1
    26    15    96    1
    27    16    66   ar
    28    16    74   ar
    29    17    57    1
    30    17    98    1
    31    18    58    1
    32    18    99    1
    33    19    59    1
    34    19   100    1
    35    20    72   ar
    36    20    75   ar
    37    21    60    1
    38    21   101    1
    39    22    62    1
    40    22   102    1
    41    23    63    1
    42    23   103    1
    43    24    65    1
    44    24   104    1
    45    25    68    1
    46    25   105    1
    47    26    71    1
    48    26   106    1
    49    27    77    1
    50    27   107    1
    51    28    74    2
    52    29    75    2
    53    30    78    1
    54    30   108    1
    55    31    32    1
    56    31    33    1
    57    31    79    1
    58    32    34    1
    59    32    80    1
    60    33    36    1
    61    33    81    1
    62    34    35    1
    63    34    82    1
    64    35    83    1
    65    36    84    1
    66    36    85    1
    67    37    40    1
    68    38    45    1
    69    39    43    1
    70    40    42   ar
    71    40    47   ar
    72    41    44    1
    73    42    46    1
    74    42    48   ar
    75    43    49   ar
    76    43    52   ar
    77    44    46   ar
    78    44    51   ar
    79    45    53   ar
    80    45    54   ar
    81    46    50   ar
    82    47    55   ar
    83    47    87    1
    84    48    56   ar
    85    49    59   ar
    86    50    57   ar
    87    51    58   ar
    88    51    88    1
    89    52    60   ar
    90    52    89    1
    91    53    63   ar
    92    53    90    1
    93    54    62   ar
    94    54    91    1
    95    55    56   ar
    96    57    58   ar
    97    59    65   ar
    98    60    65   ar
    99    61    66   ar
   100    61    67   ar
   101    61    69   ar
   102    62    68   ar
   103    63    68   ar
   104    64    66   ar
   105    64    71   ar
   106    67    70   ar
   107    67    72   ar
   108    69    73   ar
   109    69    75   ar
   110    70    74   ar
   111    70    76   ar
   112    71    73   ar
   113    72    77   ar
   114    73    93    1
   115    76    78   ar
   116    76    97    1
   117    77    78   ar
