@<TRIPOS>MOLECULE
IMPHY004489
 51 54 0 0 0
SMALL
GASTEIGER

@<TRIPOS>ATOM
      1 O           5.5103    2.2468    0.0000 O.3     1  UNL1       -0.4908
      2 O           7.2762    3.2846    0.0000 O.3     1  UNL1       -0.4914
      3 O           8.9772   -2.7880    0.0000 O.3     1  UNL1       -0.4535
      4 O           4.6497    1.7499    0.0000 O.3     1  UNL1       -0.5029
      5 O           7.2452   -2.7751    0.0000 O.2     1  UNL1       -0.2262
      6 O           2.8680    0.7395    0.0000 O.3     1  UNL1       -0.4914
      7 N           8.1223   -1.2816    0.0000 N.am    1  UNL1       -0.2597
      8 C           7.2641   -0.7847    0.0000 C.3     1  UNL1        0.0592
      9 C           7.2641    0.2153    0.0000 C.ar    1  UNL1       -0.0118
     10 C           6.3981   -1.2847    0.0000 C.3     1  UNL1       -0.0040
     11 C           8.1741    0.7222    0.0000 C.ar    1  UNL1       -0.0367
     12 C           6.3981    0.7153    0.0000 C.ar    1  UNL1        0.0365
     13 C           8.9878   -0.7974    0.0000 C.3     1  UNL1        0.0224
     14 C           9.0134    0.1940    0.0000 C.3     1  UNL1       -0.0112
     15 C           5.5320   -0.7847    0.0000 C.ar    1  UNL1       -0.0337
     16 C           5.5320    0.2153    0.0000 C.ar    1  UNL1        0.0344
     17 C           6.3820    1.7568    0.0000 C.ar    1  UNL1        0.1696
     18 C           8.1821    1.7638    0.0000 C.ar    1  UNL1       -0.0127
     19 C           7.2800    2.2846    0.0000 C.ar    1  UNL1        0.1624
     20 C           4.6381    0.7500    0.0000 C.ar    1  UNL1        0.1667
     21 C           4.6381   -1.3193    0.0000 C.ar    1  UNL1       -0.0542
     22 C           8.1149   -2.2816    0.0000 C.2     1  UNL1        0.4031
     23 C           3.7320    0.2362    0.0000 C.ar    1  UNL1        0.1619
     24 C           3.7320   -0.8055    0.0000 C.ar    1  UNL1       -0.0160
     25 C           5.4987    3.2467    0.0000 C.3     1  UNL1        0.0790
     26 C           8.1403    3.7879    0.0000 C.3     1  UNL1        0.0790
     27 C           8.9698   -3.7879    0.0000 C.3     1  UNL1        0.0833
     28 C           2.0000    0.2428    0.0000 C.3     1  UNL1        0.0790
     29 H           7.2636   -1.6347    0.0000 H       1  UNL1        0.0555
     30 H           5.9995   -1.7596    0.0000 H       1  UNL1        0.0335
     31 H           6.7966   -1.7596    0.0000 H       1  UNL1        0.0335
     32 H           9.1895   -1.3837    0.0000 H       1  UNL1        0.0469
     33 H           9.6006   -0.7031    0.0000 H       1  UNL1        0.0469
     34 H           9.6205    0.0681    0.0000 H       1  UNL1        0.0329
     35 H           9.2452    0.7690    0.0000 H       1  UNL1        0.0329
     36 H           8.7203    2.0717    0.0000 H       1  UNL1        0.0658
     37 H           4.6453   -1.9393    0.0000 H       1  UNL1        0.0622
     38 H           3.1963   -1.1175    0.0000 H       1  UNL1        0.0655
     39 H           4.1164    2.0661    0.0000 H       1  UNL1        0.2923
     40 H           6.1187    3.2539    0.0000 H       1  UNL1        0.0660
     41 H           5.4915    3.8667    0.0000 H       1  UNL1        0.0660
     42 H           4.8787    3.2396    0.0000 H       1  UNL1        0.0660
     43 H           8.4523    3.2522    0.0000 H       1  UNL1        0.0660
     44 H           8.6760    4.1000    0.0000 H       1  UNL1        0.0660
     45 H           7.8282    4.3237    0.0000 H       1  UNL1        0.0660
     46 H           8.3498   -3.7833    0.0000 H       1  UNL1        0.0661
     47 H           8.9652   -4.4079    0.0000 H       1  UNL1        0.0661
     48 H           9.5898   -3.7925    0.0000 H       1  UNL1        0.0661
     49 H           1.6921    0.7810    0.0000 H       1  UNL1        0.0660
     50 H           1.4619   -0.0651    0.0000 H       1  UNL1        0.0660
     51 H           2.3079   -0.2953    0.0000 H       1  UNL1        0.0660
@<TRIPOS>BOND
     1     1    17    1
     2     1    25    1
     3     2    19    1
     4     2    26    1
     5     3    22    1
     6     3    27    1
     7     4    20    1
     8     4    39    1
     9     5    22    2
    10     6    23    1
    11     6    28    1
    12     7     8    1
    13     7    13    1
    14     7    22   am
    15     8     9    1
    16     8    10    1
    17     8    29    1
    18     9    11   ar
    19     9    12   ar
    20    10    15    1
    21    10    30    1
    22    10    31    1
    23    11    14    1
    24    11    18   ar
    25    12    16    1
    26    12    17   ar
    27    13    14    1
    28    13    32    1
    29    13    33    1
    30    14    34    1
    31    14    35    1
    32    15    16   ar
    33    15    21   ar
    34    16    20   ar
    35    17    19   ar
    36    18    19   ar
    37    18    36    1
    38    20    23   ar
    39    21    24   ar
    40    21    37    1
    41    23    24   ar
    42    24    38    1
    43    25    40    1
    44    25    41    1
    45    25    42    1
    46    26    43    1
    47    26    44    1
    48    26    45    1
    49    27    46    1
    50    27    47    1
    51    27    48    1
    52    28    49    1
    53    28    50    1
    54    28    51    1
