@<TRIPOS>MOLECULE
IMPHY010519
 78 82 0 0 0
SMALL
GASTEIGER

@<TRIPOS>ATOM
      1 O           4.3939    0.2492    0.0000 O.3     1  UNL1       -0.3594
      2 O           7.8769    1.4322    0.0000 O.3     1  UNL1       -0.4571
      3 O           8.1067   -0.6031    0.0000 O.3     1  UNL1       -0.4571
      4 O           6.8955    4.5430    0.0000 O.2     1  UNL1       -0.4708
      5 O           5.2189   -4.5430    0.0000 O.2     1  UNL1       -0.2921
      6 O           8.9111    0.0428    0.0000 O.2     1  UNL1       -0.2512
      7 O           8.2945   -2.3250    0.0000 O.2     1  UNL1       -0.2512
      8 O           2.9005   -1.2179    0.0000 O.3     1  UNL1       -0.4679
      9 O           3.6537   -2.7775    0.0000 O.2     1  UNL1       -0.2509
     10 C           5.3078    0.6563    0.0000 C.3     1  UNL1        0.1265
     11 C           6.1168    1.2441    0.0000 C.3     1  UNL1        0.0507
     12 C           4.4987    1.2441    0.0000 C.3     1  UNL1        0.0939
     13 C           5.8078    2.1951    0.0000 C.3     1  UNL1        0.0015
     14 C           4.8078    2.1951    0.0000 C.3     1  UNL1       -0.0158
     15 C           7.0748    0.8351    0.0000 C.3     1  UNL1        0.1492
     16 C           5.4006   -0.3812    0.0000 C.2     1  UNL1       -0.0346
     17 C           6.3489   -0.8122    0.0000 C.3     1  UNL1        0.0324
     18 C           7.1916   -0.1999    0.0000 C.3     1  UNL1        0.1476
     19 C           6.9258    1.8319    0.0000 C.3     1  UNL1       -0.0524
     20 C           6.4496   -1.8071    0.0000 C.3     1  UNL1        0.0006
     21 C           6.3955    3.0042    0.0000 C.ar    1  UNL1       -0.0058
     22 C           5.4547   -1.9078    0.0000 C.3     1  UNL1       -0.0093
     23 C           4.4363   -0.6457    0.0000 C.2     1  UNL1       -0.0962
     24 C           7.2609   -1.2224    0.0000 C.3     1  UNL1       -0.0551
     25 C           5.0444   -2.8198    0.0000 C.3     1  UNL1        0.0315
     26 C           7.0343   -2.6184    0.0000 C.2     1  UNL1       -0.0738
     27 C           7.3955    3.0042    0.0000 C.ar    1  UNL1       -0.0205
     28 C           6.0865    3.9552    0.0000 C.ar    1  UNL1        0.0951
     29 C           4.6278   -1.3454    0.0000 C.3     1  UNL1        0.0494
     30 C           5.6291   -3.6310    0.0000 C.2     1  UNL1        0.1617
     31 C           6.6240   -3.5303    0.0000 C.2     1  UNL1       -0.0220
     32 C           8.7951    1.0361    0.0000 C.2     1  UNL1        0.3043
     33 C           4.2332   -3.4044    0.0000 C.3     1  UNL1       -0.0525
     34 C           4.1325   -2.4095    0.0000 C.3     1  UNL1       -0.0525
     35 C           8.6976   -1.4099    0.0000 C.2     1  UNL1        0.3043
     36 C           7.7046    3.9552    0.0000 C.ar    1  UNL1        0.0919
     37 C           3.7274   -1.7803    0.0000 C.2     1  UNL1        0.3071
     38 C           9.5973    1.6332    0.0000 C.3     1  UNL1        0.0332
     39 C           9.6917   -1.3015    0.0000 C.3     1  UNL1        0.0332
     40 C           2.0000   -1.6528    0.0000 C.3     1  UNL1        0.0817
     41 H           3.6673    1.4209    0.0000 H       1  UNL1        0.0629
     42 H           5.5263    2.7476    0.0000 H       1  UNL1        0.0358
     43 H           4.8726    2.8118    0.0000 H       1  UNL1        0.0297
     44 H           4.2013    2.3240    0.0000 H       1  UNL1        0.0297
     45 H           7.6436    0.5884    0.0000 H       1  UNL1        0.0778
     46 H           5.6584   -1.3078    0.0000 H       1  UNL1        0.0392
     47 H           7.6911    0.1674    0.0000 H       1  UNL1        0.0778
     48 H           7.2902    1.3303    0.0000 H       1  UNL1        0.0237
     49 H           7.4274    2.1963    0.0000 H       1  UNL1        0.0237
     50 H           6.5614    2.3335    0.0000 H       1  UNL1        0.0237
     51 H           5.6070   -1.3068    0.0000 H       1  UNL1        0.0324
     52 H           3.9953   -0.2098    0.0000 H       1  UNL1        0.0535
     53 H           4.2793   -1.2455    0.0000 H       1  UNL1        0.0535
     54 H           7.6234   -1.7254    0.0000 H       1  UNL1        0.0238
     55 H           7.7639   -0.8599    0.0000 H       1  UNL1        0.0238
     56 H           6.8984   -0.7194    0.0000 H       1  UNL1        0.0238
     57 H           7.6511   -2.5559    0.0000 H       1  UNL1        0.0579
     58 H           7.7600    2.5026    0.0000 H       1  UNL1        0.0652
     59 H           5.4969    4.1468    0.0000 H       1  UNL1        0.1032
     60 H           5.0602   -0.9011    0.0000 H       1  UNL1        0.0381
     61 H           4.2653   -0.8424    0.0000 H       1  UNL1        0.0381
     62 H           6.9865   -4.0333    0.0000 H       1  UNL1        0.0649
     63 H           3.8707   -2.9014    0.0000 H       1  UNL1        0.0239
     64 H           3.7302   -3.7669    0.0000 H       1  UNL1        0.0239
     65 H           4.5957   -3.9074    0.0000 H       1  UNL1        0.0239
     66 H           4.3868   -1.8441    0.0000 H       1  UNL1        0.0239
     67 H           3.5671   -2.1551    0.0000 H       1  UNL1        0.0239
     68 H           3.8781   -2.9749    0.0000 H       1  UNL1        0.0239
     69 H           8.2942    4.1468    0.0000 H       1  UNL1        0.1029
     70 H           9.9675    1.1358    0.0000 H       1  UNL1        0.0342
     71 H          10.0946    2.0034    0.0000 H       1  UNL1        0.0342
     72 H           9.2271    2.1305    0.0000 H       1  UNL1        0.0342
     73 H           9.7589   -1.9179    0.0000 H       1  UNL1        0.0342
     74 H          10.3081   -1.2343    0.0000 H       1  UNL1        0.0342
     75 H           9.6246   -0.6852    0.0000 H       1  UNL1        0.0342
     76 H           1.7304   -1.0945    0.0000 H       1  UNL1        0.0661
     77 H           1.4417   -1.9225    0.0000 H       1  UNL1        0.0661
     78 H           2.2696   -2.2111    0.0000 H       1  UNL1        0.0661
@<TRIPOS>BOND
     1    10     1    1
     2     1    12    1
     3    15     2    1
     4     2    32    1
     5    18     3    1
     6     3    35    1
     7     4    28   ar
     8     4    36   ar
     9     5    30    2
    10     6    32    2
    11     7    35    2
    12     8    37    1
    13     8    40    1
    14     9    37    2
    15    10    11    1
    16    10    12    1
    17    10    16    1
    18    11    13    1
    19    11    15    1
    20    11    19    1
    21    12    14    1
    22    12    41    1
    23    13    14    1
    24    13    21    1
    25    13    42    1
    26    14    43    1
    27    14    44    1
    28    15    18    1
    29    15    45    1
    30    16    17    1
    31    16    23    2
    32    17    18    1
    33    17    20    1
    34    17    46    1
    35    18    47    1
    36    19    48    1
    37    19    49    1
    38    19    50    1
    39    20    22    1
    40    20    24    1
    41    20    26    1
    42    21    27   ar
    43    21    28   ar
    44    22    25    1
    45    22    29    1
    46    22    51    1
    47    23    52    1
    48    23    53    1
    49    24    54    1
    50    24    55    1
    51    24    56    1
    52    25    30    1
    53    25    33    1
    54    25    34    1
    55    26    31    2
    56    26    57    1
    57    27    36   ar
    58    27    58    1
    59    28    59    1
    60    29    37    1
    61    29    60    1
    62    29    61    1
    63    30    31    1
    64    31    62    1
    65    32    38    1
    66    33    63    1
    67    33    64    1
    68    33    65    1
    69    34    66    1
    70    34    67    1
    71    34    68    1
    72    35    39    1
    73    36    69    1
    74    38    70    1
    75    38    71    1
    76    38    72    1
    77    39    73    1
    78    39    74    1
    79    39    75    1
    80    40    76    1
    81    40    77    1
    82    40    78    1
