@<TRIPOS>MOLECULE
IMPHY017243
 38 37 0 0 0
SMALL
GASTEIGER

@<TRIPOS>ATOM
      1 C           4.5981    0.0670    0.0000 C.3     1  UNL1       -0.0429
      2 C           3.7320    0.5670    0.0000 C.3     1  UNL1       -0.0455
      3 C           5.4641    0.5670    0.0000 C.3     1  UNL1       -0.0455
      4 C           2.8660    0.0670    0.0000 C.3     1  UNL1       -0.0375
      5 C           6.3301    0.0670    0.0000 C.3     1  UNL1       -0.0375
      6 C           4.5981   -0.9330    0.0000 C.3     1  UNL1       -0.0624
      7 C           2.0000   -0.4330    0.0000 C.3     1  UNL1       -0.0601
      8 C           2.3660    0.9330    0.0000 C.3     1  UNL1       -0.0601
      9 C           3.3660   -0.7990    0.0000 C.3     1  UNL1       -0.0601
     10 C           7.1962   -0.4330    0.0000 C.3     1  UNL1       -0.0601
     11 C           6.8301    0.9330    0.0000 C.3     1  UNL1       -0.0601
     12 C           5.8301   -0.7990    0.0000 C.3     1  UNL1       -0.0601
     13 H           5.1350   -0.2430    0.0000 H       1  UNL1        0.0298
     14 H           4.1306    1.0419    0.0000 H       1  UNL1        0.0273
     15 H           3.3335    1.0419    0.0000 H       1  UNL1        0.0273
     16 H           5.8626    1.0419    0.0000 H       1  UNL1        0.0273
     17 H           5.0656    1.0419    0.0000 H       1  UNL1        0.0273
     18 H           3.9781   -0.9330    0.0000 H       1  UNL1        0.0232
     19 H           4.5981   -1.5530    0.0000 H       1  UNL1        0.0232
     20 H           5.2181   -0.9330    0.0000 H       1  UNL1        0.0232
     21 H           1.6900    0.1039    0.0000 H       1  UNL1        0.0235
     22 H           1.4631   -0.7430    0.0000 H       1  UNL1        0.0235
     23 H           2.3100   -0.9699    0.0000 H       1  UNL1        0.0235
     24 H           2.9030    1.2430    0.0000 H       1  UNL1        0.0235
     25 H           2.0560    1.4700    0.0000 H       1  UNL1        0.0235
     26 H           1.8291    0.6230    0.0000 H       1  UNL1        0.0235
     27 H           2.8291   -1.1090    0.0000 H       1  UNL1        0.0235
     28 H           3.6760   -1.3360    0.0000 H       1  UNL1        0.0235
     29 H           3.9030   -0.4890    0.0000 H       1  UNL1        0.0235
     30 H           6.8862   -0.9699    0.0000 H       1  UNL1        0.0235
     31 H           7.7331   -0.7430    0.0000 H       1  UNL1        0.0235
     32 H           7.5062    0.1039    0.0000 H       1  UNL1        0.0235
     33 H           7.3671    0.6230    0.0000 H       1  UNL1        0.0235
     34 H           7.1401    1.4700    0.0000 H       1  UNL1        0.0235
     35 H           6.2932    1.2430    0.0000 H       1  UNL1        0.0235
     36 H           5.2932   -0.4890    0.0000 H       1  UNL1        0.0235
     37 H           5.5201   -1.3360    0.0000 H       1  UNL1        0.0235
     38 H           6.3671   -1.1090    0.0000 H       1  UNL1        0.0235
@<TRIPOS>BOND
     1     1     2    1
     2     1     3    1
     3     1     6    1
     4     1    13    1
     5     2     4    1
     6     2    14    1
     7     2    15    1
     8     3     5    1
     9     3    16    1
    10     3    17    1
    11     4     7    1
    12     4     8    1
    13     4     9    1
    14     5    10    1
    15     5    11    1
    16     5    12    1
    17     6    18    1
    18     6    19    1
    19     6    20    1
    20     7    21    1
    21     7    22    1
    22     7    23    1
    23     8    24    1
    24     8    25    1
    25     8    26    1
    26     9    27    1
    27     9    28    1
    28     9    29    1
    29    10    30    1
    30    10    31    1
    31    10    32    1
    32    11    33    1
    33    11    34    1
    34    11    35    1
    35    12    36    1
    36    12    37    1
    37    12    38    1
