@<TRIPOS>MOLECULE
IMPHY014996
 44 47 0 0 0
SMALL
GASTEIGER

@<TRIPOS>ATOM
      1 O           5.6349    0.4057    0.0000 O.3     1  UNL1       -0.3864
      2 O           2.0520    1.7320    0.0000 O.2     1  UNL1       -0.2970
      3 N           3.8001   -1.3095    0.0000 N.3     1  UNL1       -0.2934
      4 C           3.7841   -0.2680    0.0000 C.3     1  UNL1        0.0606
      5 C           4.6501    0.2320    0.0000 C.3     1  UNL1        0.0882
      6 C           4.6501    1.2320    0.0000 C.3     1  UNL1       -0.0035
      7 C           2.9180    0.2320    0.0000 C.3     1  UNL1        0.0386
      8 C           3.5810    0.1019    0.0000 C.3     1  UNL1       -0.0285
      9 C           3.4973    0.8976    0.0000 C.3     1  UNL1       -0.0417
     10 C           5.5599   -0.2560    0.0000 C.3     1  UNL1       -0.0208
     11 C           4.2282    1.2229    0.0000 C.3     1  UNL1       -0.0445
     12 C           3.7841    1.7320    0.0000 C.3     1  UNL1        0.0117
     13 C           2.0080   -0.2748    0.0000 C.3     1  UNL1       -0.0405
     14 C           2.9180    1.2320    0.0000 C.2     1  UNL1        0.1386
     15 C           4.6984   -1.8184    0.0000 C.3     1  UNL1       -0.0004
     16 C           5.5842   -1.2881    0.0000 C.3     1  UNL1       -0.0375
     17 C           2.9021   -1.8372    0.0000 C.3     1  UNL1       -0.0004
     18 C           2.0000   -1.3164    0.0000 C.3     1  UNL1       -0.0395
     19 C           3.1553    1.8372    0.0000 C.3     1  UNL1       -0.0623
     20 H           5.0751    1.9681    0.0000 H       1  UNL1        0.0333
     21 H           2.1819    0.6570    0.0000 H       1  UNL1        0.0396
     22 H           2.9862    0.2771    0.0000 H       1  UNL1        0.0287
     23 H           4.1726    0.2872    0.0000 H       1  UNL1        0.0287
     24 H           2.8932    0.7581    0.0000 H       1  UNL1        0.0299
     25 H           6.1730   -0.3477    0.0000 H       1  UNL1        0.0294
     26 H           5.7551    0.3325    0.0000 H       1  UNL1        0.0294
     27 H           4.4522    1.8011    0.0000 H       1  UNL1        0.0272
     28 H           4.3636    0.6179    0.0000 H       1  UNL1        0.0272
     29 H           4.1826    2.2070    0.0000 H       1  UNL1        0.0345
     30 H           3.3855    2.2070    0.0000 H       1  UNL1        0.0345
     31 H           1.8035    0.3105    0.0000 H       1  UNL1        0.0273
     32 H           1.3964   -0.3762    0.0000 H       1  UNL1        0.0273
     33 H           4.3050   -2.2976    0.0000 H       1  UNL1        0.0427
     34 H           5.1032   -2.2880    0.0000 H       1  UNL1        0.0427
     35 H           5.8069   -1.8667    0.0000 H       1  UNL1        0.0278
     36 H           6.1924   -1.1677    0.0000 H       1  UNL1        0.0278
     37 H           2.5048   -2.3132    0.0000 H       1  UNL1        0.0427
     38 H           3.3030   -2.3101    0.0000 H       1  UNL1        0.0427
     39 H           1.3900   -1.2056    0.0000 H       1  UNL1        0.0278
     40 H           1.7864   -1.8985    0.0000 H       1  UNL1        0.0278
     41 H           5.8469    0.9883    0.0000 H       1  UNL1        0.2103
     42 H           3.7379    2.0493    0.0000 H       1  UNL1        0.0232
     43 H           2.9433    2.4198    0.0000 H       1  UNL1        0.0232
     44 H           2.5727    1.6252    0.0000 H       1  UNL1        0.0232
@<TRIPOS>BOND
     1     5     1    1
     2     1    41    1
     3     2    14    2
     4     4     3    1
     5     3    15    1
     6     3    17    1
     7     4     5    1
     8     4     7    1
     9     4     8    1
    10     5     6    1
    11     5    10    1
    12     6    11    1
    13     6    12    1
    14     6    20    1
    15     7    13    1
    16     7    14    1
    17     7    21    1
    18     8     9    1
    19     8    22    1
    20     8    23    1
    21     9    11    1
    22     9    19    1
    23     9    24    1
    24    10    16    1
    25    10    25    1
    26    10    26    1
    27    11    27    1
    28    11    28    1
    29    12    14    1
    30    12    29    1
    31    12    30    1
    32    13    18    1
    33    13    31    1
    34    13    32    1
    35    15    16    1
    36    15    33    1
    37    15    34    1
    38    16    35    1
    39    16    36    1
    40    17    18    1
    41    17    37    1
    42    17    38    1
    43    18    39    1
    44    18    40    1
    45    19    42    1
    46    19    43    1
    47    19    44    1
