@<TRIPOS>MOLECULE
IMPHY013614
 80 84 0 0 0
SMALL
GASTEIGER

@<TRIPOS>ATOM
      1 O           7.9506   -2.5724    0.0000 O.3     1  UNL1       -0.3909
      2 O           2.5357   -2.5933    0.0000 O.3     1  UNL1       -0.3912
      3 C           7.0628   -1.0410    0.0000 C.3     1  UNL1        0.0247
      4 C           7.9288   -0.5410    0.0000 C.3     1  UNL1        0.0009
      5 C           5.2868   -1.0478    0.0000 C.3     1  UNL1       -0.0066
      6 C           5.2787   -2.0894    0.0000 C.3     1  UNL1       -0.0221
      7 C           6.1968   -0.5410    0.0000 C.2     1  UNL1       -0.0542
      8 C           8.8228    0.9937    0.0000 C.3     1  UNL1       -0.0132
      9 C           9.7288    0.4799    0.0000 C.3     1  UNL1       -0.0255
     10 C           7.0789   -2.0825    0.0000 C.3     1  UNL1        0.0654
     11 C           7.9288    0.4590    0.0000 C.2     1  UNL1       -0.0591
     12 C           8.8228   -1.0756    0.0000 C.3     1  UNL1       -0.0425
     13 C           6.1808   -2.6102    0.0000 C.3     1  UNL1       -0.0218
     14 C           4.3433   -2.6391    0.0000 C.3     1  UNL1       -0.0052
     15 C           9.7288   -0.5618    0.0000 C.3     1  UNL1       -0.0463
     16 C           4.3599   -0.4837    0.0000 C.3     1  UNL1       -0.0413
     17 C           8.7977    2.0784    0.0000 C.3     1  UNL1       -0.0408
     18 C          10.6726    1.0151    0.0000 C.3     1  UNL1       -0.0466
     19 C           7.7056   -1.8070    0.0000 C.3     1  UNL1       -0.0526
     20 C           3.4037   -2.0966    0.0000 C.3     1  UNL1        0.0607
     21 C           9.7288    2.6353    0.0000 C.3     1  UNL1       -0.0343
     22 C           8.2709   -1.4806    0.0000 C.3     1  UNL1       -0.0549
     23 C           3.4120   -1.0117    0.0000 C.3     1  UNL1       -0.0256
     24 C           6.1968    0.4590    0.0000 C.2     1  UNL1       -0.0614
     25 C           7.0628    0.9590    0.0000 C.2     1  UNL1       -0.0617
     26 C           5.2945   -0.0478    0.0000 C.3     1  UNL1       -0.0555
     27 C          10.6726    2.1001    0.0000 C.3     1  UNL1       -0.0473
     28 C          10.5987   -0.0135    0.0000 C.3     1  UNL1       -0.0590
     29 C           3.8467   -3.5071    0.0000 C.3     1  UNL1       -0.0572
     30 C           4.8466   -3.5032    0.0000 C.3     1  UNL1       -0.0572
     31 C          10.2188    3.5071    0.0000 C.3     1  UNL1       -0.0598
     32 C           9.2188    3.4955    0.0000 C.3     1  UNL1       -0.0598
     33 H           5.2820   -2.9394    0.0000 H       1  UNL1        0.0316
     34 H           9.5522    1.4300    0.0000 H       1  UNL1        0.0351
     35 H           7.0848   -2.7024    0.0000 H       1  UNL1        0.0602
     36 H           8.4182   -1.5454    0.0000 H       1  UNL1        0.0274
     37 H           9.2164   -1.5546    0.0000 H       1  UNL1        0.0274
     38 H           5.7835   -3.0862    0.0000 H       1  UNL1        0.0293
     39 H           6.5818   -3.0831    0.0000 H       1  UNL1        0.0293
     40 H           9.9379   -1.1455    0.0000 H       1  UNL1        0.0271
     41 H          10.3397   -0.4557    0.0000 H       1  UNL1        0.0271
     42 H           4.7681   -0.0171    0.0000 H       1  UNL1        0.0274
     43 H           3.9700   -0.0017    0.0000 H       1  UNL1        0.0274
     44 H           8.5752    2.6571    0.0000 H       1  UNL1        0.0276
     45 H           8.1894    1.9582    0.0000 H       1  UNL1        0.0276
     46 H          10.8817    0.4314    0.0000 H       1  UNL1        0.0271
     47 H          11.2835    1.1212    0.0000 H       1  UNL1        0.0271
     48 H           7.2306   -2.2055    0.0000 H       1  UNL1        0.0239
     49 H           8.1041   -2.2820    0.0000 H       1  UNL1        0.0239
     50 H           8.1805   -1.4085    0.0000 H       1  UNL1        0.0239
     51 H           3.4025   -2.7166    0.0000 H       1  UNL1        0.0599
     52 H           7.6884   -1.6927    0.0000 H       1  UNL1        0.0238
     53 H           8.4830   -2.0632    0.0000 H       1  UNL1        0.0238
     54 H           8.8535   -1.2685    0.0000 H       1  UNL1        0.0238
     55 H           3.2075   -0.4264    0.0000 H       1  UNL1        0.0290
     56 H           2.8004   -1.1131    0.0000 H       1  UNL1        0.0290
     57 H           5.6598    0.7690    0.0000 H       1  UNL1        0.0618
     58 H           7.0628    1.5790    0.0000 H       1  UNL1        0.0617
     59 H           5.9145   -0.0526    0.0000 H       1  UNL1        0.0238
     60 H           5.2993    0.5721    0.0000 H       1  UNL1        0.0238
     61 H           4.6745   -0.0431    0.0000 H       1  UNL1        0.0238
     62 H          11.2835    1.9940    0.0000 H       1  UNL1        0.0271
     63 H          10.8817    2.6838    0.0000 H       1  UNL1        0.0271
     64 H          10.2928   -0.5528    0.0000 H       1  UNL1        0.0235
     65 H          11.1380   -0.3193    0.0000 H       1  UNL1        0.0235
     66 H          10.9045    0.5259    0.0000 H       1  UNL1        0.0235
     67 H           3.3085   -3.1992    0.0000 H       1  UNL1        0.0236
     68 H           3.5387   -4.0452    0.0000 H       1  UNL1        0.0236
     69 H           4.3848   -3.8150    0.0000 H       1  UNL1        0.0236
     70 H           4.3109   -3.8153    0.0000 H       1  UNL1        0.0236
     71 H           5.1587   -4.0390    0.0000 H       1  UNL1        0.0236
     72 H           5.3824   -3.1912    0.0000 H       1  UNL1        0.0236
     73 H           7.9578   -3.1924    0.0000 H       1  UNL1        0.2098
     74 H          10.7593    3.2033    0.0000 H       1  UNL1        0.0235
     75 H          10.5226    4.0476    0.0000 H       1  UNL1        0.0235
     76 H           9.6783    3.8108    0.0000 H       1  UNL1        0.0235
     77 H           9.7522    3.8117    0.0000 H       1  UNL1        0.0235
     78 H           8.9027    4.0288    0.0000 H       1  UNL1        0.0235
     79 H           8.6855    3.1793    0.0000 H       1  UNL1        0.0235
     80 H           2.0000   -2.2812    0.0000 H       1  UNL1        0.2098
@<TRIPOS>BOND
     1    10     1    1
     2     1    73    1
     3    20     2    1
     4     2    80    1
     5     3     4    1
     6     3     7    1
     7     3    10    1
     8     3    19    1
     9     4    11    1
    10     4    12    1
    11     4    22    1
    12     5     6    1
    13     5     7    1
    14     5    16    1
    15     5    26    1
    16     6    13    1
    17     6    14    1
    18     6    33    1
    19     7    24    2
    20     8     9    1
    21     8    11    1
    22     8    17    1
    23     8    34    1
    24     9    15    1
    25     9    18    1
    26     9    28    1
    27    10    13    1
    28    10    35    1
    29    11    25    2
    30    12    15    1
    31    12    36    1
    32    12    37    1
    33    13    38    1
    34    13    39    1
    35    14    20    1
    36    14    29    1
    37    14    30    1
    38    15    40    1
    39    15    41    1
    40    16    23    1
    41    16    42    1
    42    16    43    1
    43    17    21    1
    44    17    44    1
    45    17    45    1
    46    18    27    1
    47    18    46    1
    48    18    47    1
    49    19    48    1
    50    19    49    1
    51    19    50    1
    52    20    23    1
    53    20    51    1
    54    21    27    1
    55    21    31    1
    56    21    32    1
    57    22    52    1
    58    22    53    1
    59    22    54    1
    60    23    55    1
    61    23    56    1
    62    24    25    1
    63    24    57    1
    64    25    58    1
    65    26    59    1
    66    26    60    1
    67    26    61    1
    68    27    62    1
    69    27    63    1
    70    28    64    1
    71    28    65    1
    72    28    66    1
    73    29    67    1
    74    29    68    1
    75    29    69    1
    76    30    70    1
    77    30    71    1
    78    30    72    1
    79    31    74    1
    80    31    75    1
    81    31    76    1
    82    32    77    1
    83    32    78    1
    84    32    79    1
