@<TRIPOS>MOLECULE
IMPHY013216
 55 59 0 0 0
SMALL
GASTEIGER

@<TRIPOS>ATOM
      1 O           4.8936   -2.9675    0.0000 O.3     1  UNL1       -0.4852
      2 O           2.3100   -2.1627    0.0000 O.3     1  UNL1       -0.3855
      3 O           6.6898   -0.1212    0.0000 O.2     1  UNL1       -0.4616
      4 O          12.0057    1.8790    0.0000 O.3     1  UNL1       -0.4816
      5 O           8.4379   -3.1627    0.0000 O.3     1  UNL1       -0.5058
      6 O           9.3421   -1.6659    0.0000 O.2     1  UNL1       -0.2863
      7 C           4.3100   -2.1627    0.0000 C.3     1  UNL1        0.1323
      8 C           3.3100   -2.1627    0.0000 C.3     1  UNL1        0.0974
      9 C           4.8936   -1.3580    0.0000 C.3     1  UNL1        0.0192
     10 C           5.8398   -1.6627    0.0000 C.ar    1  UNL1        0.0410
     11 C           5.8398   -2.6627    0.0000 C.ar    1  UNL1        0.1313
     12 C           6.7058   -1.1627    0.0000 C.ar    1  UNL1        0.1487
     13 C           3.3100   -3.1627    0.0000 C.3     1  UNL1       -0.0328
     14 C           3.3100   -1.1627    0.0000 C.3     1  UNL1       -0.0328
     15 C           7.5719   -1.6627    0.0000 C.ar    1  UNL1        0.1063
     16 C           6.7058   -3.1627    0.0000 C.ar    1  UNL1        0.0228
     17 C           7.5719   -2.6627    0.0000 C.ar    1  UNL1        0.1347
     18 C           8.4819   -1.1559    0.0000 C.ar    1  UNL1        0.2037
     19 C           8.4899   -0.1143    0.0000 C.ar    1  UNL1        0.0644
     20 C          12.0177    2.9206    0.0000 C.3     1  UNL1        0.1235
     21 C           9.3579    0.3824    0.0000 C.ar    1  UNL1       -0.0105
     22 C           7.5878    0.4065    0.0000 C.ar    1  UNL1        0.1039
     23 C          10.2297    1.8790    0.0000 C.ar    1  UNL1        0.0171
     24 C          11.0937    1.3757    0.0000 C.ar    1  UNL1        0.1289
     25 C           9.3617    1.3824    0.0000 C.ar    1  UNL1       -0.0432
     26 C          11.1177    3.4449    0.0000 C.2     1  UNL1       -0.0409
     27 C          10.2219   -0.1210    0.0000 C.ar    1  UNL1       -0.0503
     28 C          10.2176    2.9206    0.0000 C.2     1  UNL1       -0.0513
     29 C          12.5244    3.7827    0.0000 C.3     1  UNL1       -0.0215
     30 C          13.0177    2.9129    0.0000 C.3     1  UNL1       -0.0215
     31 C          11.0899    0.3757    0.0000 C.ar    1  UNL1       -0.0187
     32 H           4.0283   -2.7150    0.0000 H       1  UNL1        0.0765
     33 H           5.1446   -0.7911    0.0000 H       1  UNL1        0.0352
     34 H           4.3562   -1.0488    0.0000 H       1  UNL1        0.0352
     35 H           2.6900   -3.1627    0.0000 H       1  UNL1        0.0258
     36 H           3.3100   -3.7827    0.0000 H       1  UNL1        0.0258
     37 H           3.9300   -3.1627    0.0000 H       1  UNL1        0.0258
     38 H           3.9300   -1.1627    0.0000 H       1  UNL1        0.0258
     39 H           3.3100   -0.5427    0.0000 H       1  UNL1        0.0258
     40 H           2.6900   -1.1627    0.0000 H       1  UNL1        0.0258
     41 H           6.7058   -3.7827    0.0000 H       1  UNL1        0.0691
     42 H           2.0000   -2.6997    0.0000 H       1  UNL1        0.2103
     43 H           7.5854    1.0265    0.0000 H       1  UNL1        0.1037
     44 H           8.8260    1.6944    0.0000 H       1  UNL1        0.0631
     45 H          11.1177    4.0649    0.0000 H       1  UNL1        0.0611
     46 H          10.2196   -0.7410    0.0000 H       1  UNL1        0.0625
     47 H           9.6783    3.2264    0.0000 H       1  UNL1        0.0623
     48 H          13.0589    3.4686    0.0000 H       1  UNL1        0.0271
     49 H          12.8385    4.3173    0.0000 H       1  UNL1        0.0271
     50 H          11.9899    4.0969    0.0000 H       1  UNL1        0.0271
     51 H          13.0129    2.2929    0.0000 H       1  UNL1        0.0271
     52 H          13.6377    2.9081    0.0000 H       1  UNL1        0.0271
     53 H          13.0225    3.5329    0.0000 H       1  UNL1        0.0271
     54 H          11.6256    0.0636    0.0000 H       1  UNL1        0.0654
     55 H           8.4379   -3.7827    0.0000 H       1  UNL1        0.2922
@<TRIPOS>BOND
     1     1     7    1
     2     1    11    1
     3     2     8    1
     4     2    42    1
     5     3    12   ar
     6     3    22   ar
     7     4    20    1
     8     4    24    1
     9     5    17    1
    10     5    55    1
    11     6    18    2
    12     7     8    1
    13     7     9    1
    14     7    32    1
    15     8    13    1
    16     8    14    1
    17     9    10    1
    18     9    33    1
    19     9    34    1
    20    10    11   ar
    21    10    12   ar
    22    11    16   ar
    23    12    15   ar
    24    13    35    1
    25    13    36    1
    26    13    37    1
    27    14    38    1
    28    14    39    1
    29    14    40    1
    30    15    17   ar
    31    15    18   ar
    32    16    17   ar
    33    16    41    1
    34    18    19   ar
    35    19    21    1
    36    19    22   ar
    37    20    26    1
    38    20    29    1
    39    20    30    1
    40    21    25   ar
    41    21    27   ar
    42    22    43    1
    43    23    24   ar
    44    23    25   ar
    45    23    28    1
    46    24    31   ar
    47    25    44    1
    48    26    28    2
    49    26    45    1
    50    27    31   ar
    51    27    46    1
    52    28    47    1
    53    29    48    1
    54    29    49    1
    55    29    50    1
    56    30    51    1
    57    30    52    1
    58    30    53    1
    59    31    54    1
