@<TRIPOS>MOLECULE
IMPHY001176
 47 50 0 0 0
SMALL
GASTEIGER

@<TRIPOS>ATOM
      1 O           2.5405   -0.5892    0.0000 O.3     1  UNL1       -0.3885
      2 O           2.5247   -2.6374    0.0000 O.3     1  UNL1       -0.3743
      3 O           4.2986   -3.6616    0.0000 O.3     1  UNL1       -0.3848
      4 O           2.5247    2.4528    0.0000 O.3     1  UNL1       -0.4914
      5 O           4.2986    3.4770    0.0000 O.3     1  UNL1       -0.4914
      6 N           6.0427   -0.5923    0.0000 N.3     1  UNL1       -0.2872
      7 C           5.1767   -1.0923    0.0000 C.3     1  UNL1        0.0440
      8 C           4.3107   -0.5923    0.0000 C.3     1  UNL1        0.0325
      9 C           3.4007   -1.0991    0.0000 C.3     1  UNL1        0.0925
     10 C           5.1928   -2.1338    0.0000 C.2     1  UNL1       -0.0239
     11 C           3.3926   -2.1407    0.0000 C.3     1  UNL1        0.1143
     12 C           4.2947   -2.6616    0.0000 C.3     1  UNL1        0.1063
     13 C           4.3107    0.4077    0.0000 C.ar    1  UNL1       -0.0319
     14 C           6.6606   -1.3706    0.0000 C.3     1  UNL1        0.0184
     15 C           6.0427    0.4077    0.0000 C.3     1  UNL1        0.0253
     16 C           6.1808   -2.2409    0.0000 C.2     1  UNL1       -0.0668
     17 C           5.1767    0.9077    0.0000 C.ar    1  UNL1       -0.0261
     18 C           3.4007    0.9146    0.0000 C.ar    1  UNL1       -0.0124
     19 C           5.1928    1.9492    0.0000 C.ar    1  UNL1       -0.0116
     20 C           3.3926    1.9562    0.0000 C.ar    1  UNL1        0.1618
     21 C           4.2947    2.4770    0.0000 C.ar    1  UNL1        0.1618
     22 C           2.5208   -3.6374    0.0000 C.3     1  UNL1        0.0370
     23 C           2.5208    3.4528    0.0000 C.3     1  UNL1        0.0790
     24 C           5.1665    3.9736    0.0000 C.3     1  UNL1        0.0790
     25 H           4.4406   -1.5173    0.0000 H       1  UNL1        0.0517
     26 H           5.0468   -0.1673    0.0000 H       1  UNL1        0.0393
     27 H           2.8608   -1.4040    0.0000 H       1  UNL1        0.0627
     28 H           3.3914   -2.7607    0.0000 H       1  UNL1        0.0651
     29 H           4.8334   -2.9684    0.0000 H       1  UNL1        0.0668
     30 H           7.1595   -1.7389    0.0000 H       1  UNL1        0.0470
     31 H           7.0913   -0.9246    0.0000 H       1  UNL1        0.0470
     32 H           6.6533    0.3000    0.0000 H       1  UNL1        0.0476
     33 H           6.2548    0.9903    0.0000 H       1  UNL1        0.0476
     34 H           6.4668   -2.7910    0.0000 H       1  UNL1        0.0586
     35 H           2.8674    0.5984    0.0000 H       1  UNL1        0.0658
     36 H           2.0000   -0.8929    0.0000 H       1  UNL1        0.2099
     37 H           5.7332    2.2530    0.0000 H       1  UNL1        0.0658
     38 H           3.7628   -3.9736    0.0000 H       1  UNL1        0.2103
     39 H           1.9008   -3.6350    0.0000 H       1  UNL1        0.0524
     40 H           2.5184   -4.2574    0.0000 H       1  UNL1        0.0524
     41 H           3.1408   -3.6398    0.0000 H       1  UNL1        0.0524
     42 H           3.1408    3.4552    0.0000 H       1  UNL1        0.0660
     43 H           2.5184    4.0728    0.0000 H       1  UNL1        0.0660
     44 H           1.9008    3.4504    0.0000 H       1  UNL1        0.0660
     45 H           5.4744    3.4355    0.0000 H       1  UNL1        0.0660
     46 H           5.7046    4.2815    0.0000 H       1  UNL1        0.0660
     47 H           4.8586    4.5117    0.0000 H       1  UNL1        0.0660
@<TRIPOS>BOND
     1     9     1    1
     2     1    36    1
     3    11     2    1
     4     2    22    1
     5    12     3    1
     6     3    38    1
     7     4    20    1
     8     4    23    1
     9     5    21    1
    10     5    24    1
    11     6     7    1
    12     6    14    1
    13     6    15    1
    14     7     8    1
    15     7    10    1
    16     7    25    1
    17     8     9    1
    18     8    13    1
    19     8    26    1
    20     9    11    1
    21     9    27    1
    22    10    12    1
    23    10    16    2
    24    11    12    1
    25    11    28    1
    26    12    29    1
    27    13    17   ar
    28    13    18   ar
    29    14    16    1
    30    14    30    1
    31    14    31    1
    32    15    17    1
    33    15    32    1
    34    15    33    1
    35    16    34    1
    36    17    19   ar
    37    18    20   ar
    38    18    35    1
    39    19    21   ar
    40    19    37    1
    41    20    21   ar
    42    22    39    1
    43    22    40    1
    44    22    41    1
    45    23    42    1
    46    23    43    1
    47    23    44    1
    48    24    45    1
    49    24    46    1
    50    24    47    1
