@<TRIPOS>MOLECULE
IMPHY014202
 82 87 0 0 0
SMALL
GASTEIGER

@<TRIPOS>ATOM
      1 O           9.8067    1.9635    0.0000 O.3     1  UNL1       -0.3752
      2 O           2.5357   -2.5732    0.0000 O.3     1  UNL1       -0.3912
      3 C           8.3092   -0.3814    0.0000 C.3     1  UNL1       -0.0232
      4 C           7.3738   -0.9311    0.0000 C.3     1  UNL1       -0.0231
      5 C           8.3172    0.6602    0.0000 C.3     1  UNL1       -0.0293
      6 C           9.2273    1.1670    0.0000 C.3     1  UNL1       -0.0031
      7 C           6.4342   -0.3886    0.0000 C.3     1  UNL1       -0.0294
      8 C          10.0933    0.6670    0.0000 C.3     1  UNL1       -0.0004
      9 C           5.4468   -0.9385    0.0000 C.3     1  UNL1       -0.0252
     10 C           9.2113   -0.9022    0.0000 C.3     1  UNL1       -0.0463
     11 C           9.2273    2.1670    0.0000 C.3     1  UNL1        0.0675
     12 C           5.4381   -2.0687    0.0000 C.3     1  UNL1       -0.0278
     13 C           7.3904    1.2243    0.0000 C.3     1  UNL1       -0.0491
     14 C           6.4425    0.6963    0.0000 C.3     1  UNL1       -0.0489
     15 C          10.1093   -0.3745    0.0000 C.3     1  UNL1       -0.0444
     16 C           7.3912   -2.0612    0.0000 C.3     1  UNL1       -0.0466
     17 C           6.4169   -2.6338    0.0000 C.3     1  UNL1       -0.0486
     18 C          10.9593    1.1670    0.0000 C.3     1  UNL1       -0.0444
     19 C          10.0933    2.6670    0.0000 C.3     1  UNL1       -0.0083
     20 C          10.2067    1.2706    0.0000 C.3     1  UNL1        0.0540
     21 C           8.6441   -1.3237    0.0000 C.3     1  UNL1       -0.0588
     22 C           4.4232   -2.6651    0.0000 C.3     1  UNL1       -0.0056
     23 C           8.0166   -1.6972    0.0000 C.3     1  UNL1       -0.0588
     24 C           4.4412   -0.3265    0.0000 C.3     1  UNL1       -0.0447
     25 C          10.9593    2.1670    0.0000 C.3     1  UNL1       -0.0449
     26 C           5.4545    0.0614    0.0000 C.3     1  UNL1       -0.0590
     27 C           3.4037   -2.0765    0.0000 C.3     1  UNL1        0.0606
     28 C           3.4128   -0.8993    0.0000 C.3     1  UNL1       -0.0258
     29 C          10.5933    3.5331    0.0000 C.3     1  UNL1       -0.0574
     30 C           9.5933    3.5331    0.0000 C.3     1  UNL1       -0.0574
     31 C           3.9265   -3.5331    0.0000 C.3     1  UNL1       -0.0572
     32 C           4.9265   -3.5292    0.0000 C.3     1  UNL1       -0.0572
     33 H           9.0484    0.2267    0.0000 H       1  UNL1        0.0310
     34 H           8.4911    1.5920    0.0000 H       1  UNL1        0.0335
     35 H           7.1719    0.0335    0.0000 H       1  UNL1        0.0312
     36 H           8.8140   -1.3782    0.0000 H       1  UNL1        0.0271
     37 H           9.6123   -1.3751    0.0000 H       1  UNL1        0.0271
     38 H           8.8023    2.9032    0.0000 H       1  UNL1        0.0604
     39 H           5.4414   -2.9187    0.0000 H       1  UNL1        0.0312
     40 H           7.7986    1.6909    0.0000 H       1  UNL1        0.0268
     41 H           7.0005    1.7063    0.0000 H       1  UNL1        0.0268
     42 H           6.2380    1.2816    0.0000 H       1  UNL1        0.0268
     43 H           5.8309    0.5950    0.0000 H       1  UNL1        0.0268
     44 H          10.3274   -0.9549    0.0000 H       1  UNL1        0.0272
     45 H          10.7185   -0.2590    0.0000 H       1  UNL1        0.0272
     46 H           7.6092   -2.6416    0.0000 H       1  UNL1        0.0271
     47 H           8.0004   -1.9456    0.0000 H       1  UNL1        0.0271
     48 H           6.0196   -3.1097    0.0000 H       1  UNL1        0.0268
     49 H           6.8178   -3.1066    0.0000 H       1  UNL1        0.0268
     50 H          11.1714    0.5844    0.0000 H       1  UNL1        0.0272
     51 H          11.5699    1.2747    0.0000 H       1  UNL1        0.0272
     52 H          10.7586    0.9883    0.0000 H       1  UNL1        0.0565
     53 H          10.6338    1.7200    0.0000 H       1  UNL1        0.0565
     54 H           8.0599   -1.5313    0.0000 H       1  UNL1        0.0235
     55 H           8.8517   -1.9079    0.0000 H       1  UNL1        0.0235
     56 H           9.2283   -1.1160    0.0000 H       1  UNL1        0.0235
     57 H           7.5416   -2.0957    0.0000 H       1  UNL1        0.0235
     58 H           8.4151   -2.1721    0.0000 H       1  UNL1        0.0235
     59 H           8.4915   -1.2986    0.0000 H       1  UNL1        0.0235
     60 H           4.8494    0.1401    0.0000 H       1  UNL1        0.0271
     61 H           4.0513    0.1555    0.0000 H       1  UNL1        0.0271
     62 H          11.5699    2.0594    0.0000 H       1  UNL1        0.0271
     63 H          11.1714    2.7497    0.0000 H       1  UNL1        0.0271
     64 H           6.0745    0.0566    0.0000 H       1  UNL1        0.0235
     65 H           5.4593    0.6814    0.0000 H       1  UNL1        0.0235
     66 H           4.8346    0.0662    0.0000 H       1  UNL1        0.0235
     67 H           3.4025   -2.6965    0.0000 H       1  UNL1        0.0599
     68 H           3.2082   -0.3141    0.0000 H       1  UNL1        0.0290
     69 H           2.8011   -1.0007    0.0000 H       1  UNL1        0.0290
     70 H          11.1302    3.2231    0.0000 H       1  UNL1        0.0236
     71 H          10.9033    4.0700    0.0000 H       1  UNL1        0.0236
     72 H          10.0563    3.8431    0.0000 H       1  UNL1        0.0236
     73 H          10.1302    3.8431    0.0000 H       1  UNL1        0.0236
     74 H           9.2833    4.0700    0.0000 H       1  UNL1        0.0236
     75 H           9.0563    3.2231    0.0000 H       1  UNL1        0.0236
     76 H           3.3884   -3.2252    0.0000 H       1  UNL1        0.0236
     77 H           3.6186   -4.0712    0.0000 H       1  UNL1        0.0236
     78 H           4.4646   -3.8410    0.0000 H       1  UNL1        0.0236
     79 H           4.3908   -3.8413    0.0000 H       1  UNL1        0.0236
     80 H           5.2386   -4.0650    0.0000 H       1  UNL1        0.0236
     81 H           5.4622   -3.2172    0.0000 H       1  UNL1        0.0236
     82 H           2.0000   -2.2611    0.0000 H       1  UNL1        0.2098
@<TRIPOS>BOND
     1     1    11    1
     2     1    20    1
     3    27     2    1
     4     2    82    1
     5     3     4    1
     6     3     5    1
     7     3    10    1
     8     3    21    1
     9     4     7    1
    10     4    16    1
    11     4    23    1
    12     5     6    1
    13     5    13    1
    14     5    33    1
    15     6     8    1
    16     6    11    1
    17     6    34    1
    18     7     9    1
    19     7    14    1
    20     7    35    1
    21     8    15    1
    22     8    18    1
    23     8    20    1
    24     9    12    1
    25     9    24    1
    26     9    26    1
    27    10    15    1
    28    10    36    1
    29    10    37    1
    30    11    19    1
    31    11    38    1
    32    12    17    1
    33    12    22    1
    34    12    39    1
    35    13    14    1
    36    13    40    1
    37    13    41    1
    38    14    42    1
    39    14    43    1
    40    15    44    1
    41    15    45    1
    42    16    17    1
    43    16    46    1
    44    16    47    1
    45    17    48    1
    46    17    49    1
    47    18    25    1
    48    18    50    1
    49    18    51    1
    50    19    25    1
    51    19    29    1
    52    19    30    1
    53    20    52    1
    54    20    53    1
    55    21    54    1
    56    21    55    1
    57    21    56    1
    58    22    27    1
    59    22    31    1
    60    22    32    1
    61    23    57    1
    62    23    58    1
    63    23    59    1
    64    24    28    1
    65    24    60    1
    66    24    61    1
    67    25    62    1
    68    25    63    1
    69    26    64    1
    70    26    65    1
    71    26    66    1
    72    27    28    1
    73    27    67    1
    74    28    68    1
    75    28    69    1
    76    29    70    1
    77    29    71    1
    78    29    72    1
    79    30    73    1
    80    30    74    1
    81    30    75    1
    82    31    76    1
    83    31    77    1
    84    31    78    1
    85    32    79    1
    86    32    80    1
    87    32    81    1
