@<TRIPOS>MOLECULE
IMPHY013830
 42 42 0 0 0
SMALL
GASTEIGER

@<TRIPOS>ATOM
      1 O           6.0010   -1.2500    0.0000 O.3     1  UNL1       -0.4611
      2 O           4.2690   -1.2500    0.0000 O.2     1  UNL1       -0.2449
      3 O           2.5369   -3.2500    0.0000 O.3     1  UNL1       -0.4771
      4 O           3.4030   -1.7500    0.0000 O.2     1  UNL1       -0.2451
      5 C           7.7331    1.7500    0.0000 C.3     1  UNL1       -0.0530
      6 C           7.7331    2.7500    0.0000 C.3     1  UNL1       -0.0531
      7 C           6.8671    1.2500    0.0000 C.3     1  UNL1       -0.0500
      8 C           8.5991    3.2500    0.0000 C.3     1  UNL1       -0.0533
      9 C           6.8671    0.2500    0.0000 C.3     1  UNL1       -0.0185
     10 C           8.5991    4.2500    0.0000 C.3     1  UNL1       -0.0559
     11 C           6.0010   -0.2500    0.0000 C.3     1  UNL1        0.0928
     12 C           9.4651    4.7500    0.0000 C.3     1  UNL1       -0.0653
     13 C           5.1350   -1.7500    0.0000 C.2     1  UNL1        0.3400
     14 C           5.1350   -2.7500    0.0000 C.ar    1  UNL1        0.0729
     15 C           4.2690   -3.2500    0.0000 C.ar    1  UNL1        0.0728
     16 C           6.0010   -3.2500    0.0000 C.ar    1  UNL1       -0.0470
     17 C           4.2690   -4.2500    0.0000 C.ar    1  UNL1       -0.0470
     18 C           6.0010   -4.2500    0.0000 C.ar    1  UNL1       -0.0609
     19 C           5.1350   -4.7500    0.0000 C.ar    1  UNL1       -0.0609
     20 C           3.4030   -2.7500    0.0000 C.2     1  UNL1        0.3376
     21 H           7.9451    1.1674    0.0000 H       1  UNL1        0.0265
     22 H           8.3437    1.8577    0.0000 H       1  UNL1        0.0265
     23 H           7.5210    3.3326    0.0000 H       1  UNL1        0.0265
     24 H           7.1225    2.6423    0.0000 H       1  UNL1        0.0265
     25 H           6.6550    1.8326    0.0000 H       1  UNL1        0.0266
     26 H           6.2565    1.1423    0.0000 H       1  UNL1        0.0266
     27 H           8.8112    2.6674    0.0000 H       1  UNL1        0.0265
     28 H           9.2097    3.3577    0.0000 H       1  UNL1        0.0265
     29 H           7.0791   -0.3326    0.0000 H       1  UNL1        0.0298
     30 H           7.4776    0.3577    0.0000 H       1  UNL1        0.0298
     31 H           8.3871    4.8326    0.0000 H       1  UNL1        0.0263
     32 H           7.9885    4.1423    0.0000 H       1  UNL1        0.0263
     33 H           5.7890    0.3326    0.0000 H       1  UNL1        0.0697
     34 H           5.3905   -0.3577    0.0000 H       1  UNL1        0.0697
     35 H           9.7751    4.2131    0.0000 H       1  UNL1        0.0230
     36 H          10.0021    5.0600    0.0000 H       1  UNL1        0.0230
     37 H           9.1551    5.2869    0.0000 H       1  UNL1        0.0230
     38 H           6.5380   -2.9400    0.0000 H       1  UNL1        0.0626
     39 H           3.7320   -4.5600    0.0000 H       1  UNL1        0.0626
     40 H           6.5380   -4.5600    0.0000 H       1  UNL1        0.0618
     41 H           5.1350   -5.3700    0.0000 H       1  UNL1        0.0618
     42 H           2.0000   -2.9400    0.0000 H       1  UNL1        0.2954
@<TRIPOS>BOND
     1     1    11    1
     2     1    13    1
     3     2    13    2
     4     3    20    1
     5     3    42    1
     6     4    20    2
     7     5     6    1
     8     5     7    1
     9     5    21    1
    10     5    22    1
    11     6     8    1
    12     6    23    1
    13     6    24    1
    14     7     9    1
    15     7    25    1
    16     7    26    1
    17     8    10    1
    18     8    27    1
    19     8    28    1
    20     9    11    1
    21     9    29    1
    22     9    30    1
    23    10    12    1
    24    10    31    1
    25    10    32    1
    26    11    33    1
    27    11    34    1
    28    12    35    1
    29    12    36    1
    30    12    37    1
    31    13    14    1
    32    14    15   ar
    33    14    16   ar
    34    15    17   ar
    35    15    20    1
    36    16    18   ar
    37    16    38    1
    38    17    19   ar
    39    17    39    1
    40    18    19   ar
    41    18    40    1
    42    19    41    1
