@<TRIPOS>MOLECULE
IMPHY004636
 52 55 0 0 0
SMALL
GASTEIGER

@<TRIPOS>ATOM
      1 O           5.1350   -1.6796    0.0000 O.3     1  UNL1       -0.3313
      2 O           6.8671   -1.6796    0.0000 O.3     1  UNL1       -0.4607
      3 O           5.1350   -4.6796    0.0000 O.3     1  UNL1       -0.3864
      4 O           3.4030   -3.6796    0.0000 O.3     1  UNL1       -0.3865
      5 O           6.8671   -3.6796    0.0000 O.3     1  UNL1       -0.3829
      6 O           2.5369   -2.1796    0.0000 O.3     1  UNL1       -0.3924
      7 O           8.6230    1.3829    0.0000 O.3     1  UNL1       -0.4830
      8 O           6.0308    2.8930    0.0000 O.2     1  UNL1       -0.2918
      9 O          12.0987    4.3696    0.0000 O.3     1  UNL1       -0.5068
     10 C           5.1350   -3.6796    0.0000 C.3     1  UNL1        0.1152
     11 C           4.2690   -3.1796    0.0000 C.3     1  UNL1        0.1120
     12 C           6.0010   -3.1796    0.0000 C.3     1  UNL1        0.1454
     13 C           4.2690   -2.1796    0.0000 C.3     1  UNL1        0.1140
     14 C           6.0010   -2.1796    0.0000 C.3     1  UNL1        0.2308
     15 C           3.4030   -1.6796    0.0000 C.3     1  UNL1        0.0731
     16 C           6.8671   -0.6796    0.0000 C.ar    1  UNL1        0.1275
     17 C           8.6269    2.3829    0.0000 C.3     1  UNL1        0.1322
     18 C           7.7628    2.8863    0.0000 C.3     1  UNL1        0.0519
     19 C           7.7551    0.8863    0.0000 C.ar    1  UNL1        0.1353
     20 C           6.8910    1.3896    0.0000 C.ar    1  UNL1        0.0594
     21 C           7.7671   -0.1553    0.0000 C.ar    1  UNL1        0.0226
     22 C           6.8948    2.3896    0.0000 C.2     1  UNL1        0.1705
     23 C           5.9670   -0.1553    0.0000 C.ar    1  UNL1       -0.0189
     24 C           5.9790    0.8863    0.0000 C.ar    1  UNL1       -0.0443
     25 C           9.4948    2.8796    0.0000 C.ar    1  UNL1       -0.0067
     26 C          10.3589    2.3763    0.0000 C.ar    1  UNL1       -0.0516
     27 C           9.4987    3.8796    0.0000 C.ar    1  UNL1       -0.0516
     28 C          11.2269    2.8729    0.0000 C.ar    1  UNL1       -0.0198
     29 C          10.3666    4.3762    0.0000 C.ar    1  UNL1       -0.0198
     30 C          11.2307    3.8729    0.0000 C.ar    1  UNL1        0.1169
     31 H           5.6720   -3.9896    0.0000 H       1  UNL1        0.0648
     32 H           4.2690   -3.7996    0.0000 H       1  UNL1        0.0647
     33 H           6.5380   -2.8696    0.0000 H       1  UNL1        0.0683
     34 H           4.2690   -1.5596    0.0000 H       1  UNL1        0.0647
     35 H           6.0010   -1.5596    0.0000 H       1  UNL1        0.1084
     36 H           3.8015   -1.2046    0.0000 H       1  UNL1        0.0584
     37 H           3.0044   -1.2046    0.0000 H       1  UNL1        0.0584
     38 H           4.5981   -4.9896    0.0000 H       1  UNL1        0.2100
     39 H           3.4030   -4.2996    0.0000 H       1  UNL1        0.2100
     40 H           7.4040   -3.3696    0.0000 H       1  UNL1        0.2102
     41 H           8.6293    3.0029    0.0000 H       1  UNL1        0.0789
     42 H           8.1632    3.3597    0.0000 H       1  UNL1        0.0385
     43 H           7.3661    3.3628    0.0000 H       1  UNL1        0.0385
     44 H           8.3064   -0.4611    0.0000 H       1  UNL1        0.0691
     45 H           5.4277   -0.4611    0.0000 H       1  UNL1        0.0654
     46 H           2.0000   -1.8696    0.0000 H       1  UNL1        0.2095
     47 H           5.4470    1.2045    0.0000 H       1  UNL1        0.0627
     48 H          10.3565    1.7563    0.0000 H       1  UNL1        0.0623
     49 H           8.9630    4.1916    0.0000 H       1  UNL1        0.0623
     50 H          11.7626    2.5608    0.0000 H       1  UNL1        0.0654
     51 H          10.3690    4.9962    0.0000 H       1  UNL1        0.0654
     52 H          12.1011    4.9896    0.0000 H       1  UNL1        0.2921
@<TRIPOS>BOND
     1     1    13    1
     2     1    14    1
     3    14     2    1
     4     2    16    1
     5    10     3    1
     6     3    38    1
     7    11     4    1
     8     4    39    1
     9    12     5    1
    10     5    40    1
    11     6    15    1
    12     6    46    1
    13     7    17    1
    14     7    19    1
    15     8    22    2
    16     9    30    1
    17     9    52    1
    18    10    11    1
    19    10    12    1
    20    10    31    1
    21    11    13    1
    22    11    32    1
    23    12    14    1
    24    12    33    1
    25    13    15    1
    26    13    34    1
    27    14    35    1
    28    15    36    1
    29    15    37    1
    30    16    21   ar
    31    16    23   ar
    32    17    18    1
    33    17    25    1
    34    17    41    1
    35    18    22    1
    36    18    42    1
    37    18    43    1
    38    19    20   ar
    39    19    21   ar
    40    20    22    1
    41    20    24   ar
    42    21    44    1
    43    23    24   ar
    44    23    45    1
    45    24    47    1
    46    25    26   ar
    47    25    27   ar
    48    26    28   ar
    49    26    48    1
    50    27    29   ar
    51    27    49    1
    52    28    30   ar
    53    28    50    1
    54    29    30   ar
    55    29    51    1
