@<TRIPOS>MOLECULE
IMPHY009795
 70 76 0 0 0
SMALL
GASTEIGER

@<TRIPOS>ATOM
      1 O           6.4276   -2.7508    0.0000 O.3     1  UNL1       -0.3274
      2 O           6.9595   -3.7227    0.0000 O.3     1  UNL1       -0.4495
      3 O           3.7184   -3.5333    0.0000 O.3     1  UNL1       -0.4570
      4 O           7.9899   -1.1458    0.0000 O.3     1  UNL1       -0.3751
      5 O           3.9784    0.8631    0.0000 O.3     1  UNL1       -0.3585
      6 O           3.8048   -0.1217    0.0000 O.2     1  UNL1       -0.2913
      7 O           8.9990   -2.6861    0.0000 O.2     1  UNL1       -0.2474
      8 O           4.0759    1.8882    0.0000 O.3     1  UNL1       -0.3873
      9 O           2.0000   -3.2071    0.0000 O.2     1  UNL1       -0.2505
     10 O           8.7131    0.9992    0.0000 O.2     1  UNL1       -0.2918
     11 C           6.1105   -1.8298    0.0000 C.3     1  UNL1        0.1647
     12 C           5.1708   -1.4878    0.0000 C.3     1  UNL1        0.0654
     13 C           5.7694   -2.8140    0.0000 C.3     1  UNL1        0.1799
     14 C           4.1423   -1.6528    0.0000 C.3     1  UNL1       -0.0034
     15 C           7.0502   -1.4878    0.0000 C.3     1  UNL1        0.1959
     16 C           4.6460   -3.1441    0.0000 C.3     1  UNL1        0.1457
     17 C           3.8775   -2.4875    0.0000 C.3     1  UNL1       -0.0048
     18 C           4.8444    0.3631    0.0000 C.3     1  UNL1        0.2346
     19 C           4.6708   -0.6217    0.0000 C.2     1  UNL1        0.1987
     20 C           5.6105    1.0058    0.0000 C.3     1  UNL1        0.0540
     21 C           3.1686   -1.9057    0.0000 C.3     1  UNL1        0.0599
     22 C           6.6105    1.0058    0.0000 C.3     1  UNL1       -0.0139
     23 C           7.5502   -0.6217    0.0000 C.3     1  UNL1       -0.0102
     24 C           7.9998   -2.6456    0.0000 C.2     1  UNL1        0.3430
     25 C           7.3765    0.3631    0.0000 C.3     1  UNL1       -0.0453
     26 C           6.1222   -3.7496    0.0000 C.3     1  UNL1       -0.0183
     27 C           3.4895   -0.8953    0.0000 C.3     1  UNL1       -0.0579
     28 C           7.1451    1.8998    0.0000 C.3     1  UNL1        0.0547
     29 C           5.0758    1.8998    0.0000 C.3     1  UNL1        0.0821
     30 C           2.9474   -2.8871    0.0000 C.2     1  UNL1        0.3109
     31 C           2.4502   -1.2102    0.0000 C.3     1  UNL1       -0.0518
     32 C           6.6313    2.8059    0.0000 C.2     1  UNL1       -0.0537
     33 C           5.5897    2.8059    0.0000 C.2     1  UNL1       -0.0550
     34 C           7.6384    1.0299    0.0000 C.3     1  UNL1       -0.0485
     35 C           8.2298    1.8747    0.0000 C.2     1  UNL1        0.1659
     36 C           7.1665    3.7496    0.0000 C.3     1  UNL1       -0.0121
     37 C           8.7868    2.8059    0.0000 C.2     1  UNL1       -0.0220
     38 C           8.2515    3.7496    0.0000 C.2     1  UNL1       -0.0767
     39 H           5.5693   -1.0128    0.0000 H       1  UNL1        0.0416
     40 H           4.8537   -3.7283    0.0000 H       1  UNL1        0.0775
     41 H           3.3167   -2.2231    0.0000 H       1  UNL1        0.0308
     42 H           3.5410   -3.0082    0.0000 H       1  UNL1        0.0308
     43 H           4.9991    1.1088    0.0000 H       1  UNL1        0.0389
     44 H           2.5745   -2.0830    0.0000 H       1  UNL1        0.0416
     45 H           7.2219    1.1088    0.0000 H       1  UNL1        0.0319
     46 H           7.9756   -1.0727    0.0000 H       1  UNL1        0.0299
     47 H           8.1042   -0.3435    0.0000 H       1  UNL1        0.0299
     48 H           7.9923    0.2911    0.0000 H       1  UNL1        0.0269
     49 H           7.6221    0.9324    0.0000 H       1  UNL1        0.0269
     50 H           5.5421   -3.9684    0.0000 H       1  UNL1        0.0270
     51 H           6.3410   -4.3298    0.0000 H       1  UNL1        0.0270
     52 H           6.7023   -3.5309    0.0000 H       1  UNL1        0.0270
     53 H           3.9591   -0.4906    0.0000 H       1  UNL1        0.0235
     54 H           3.0847   -0.4257    0.0000 H       1  UNL1        0.0235
     55 H           3.0198   -1.3001    0.0000 H       1  UNL1        0.0235
     56 H           4.7607    2.4337    0.0000 H       1  UNL1        0.0642
     57 H           8.4648   -1.5443    0.0000 H       1  UNL1        0.2110
     58 H           2.8814   -0.7647    0.0000 H       1  UNL1        0.0238
     59 H           2.0047   -0.7790    0.0000 H       1  UNL1        0.0238
     60 H           2.0189   -1.6556    0.0000 H       1  UNL1        0.0238
     61 H           3.4415    0.5531    0.0000 H       1  UNL1        0.2132
     62 H           5.2776    3.3416    0.0000 H       1  UNL1        0.0598
     63 H           7.0991    0.7241    0.0000 H       1  UNL1        0.0242
     64 H           7.9443    0.4906    0.0000 H       1  UNL1        0.0242
     65 H           8.1778    1.3358    0.0000 H       1  UNL1        0.0242
     66 H           7.2726    4.3605    0.0000 H       1  UNL1        0.0353
     67 H           6.5828    3.9587    0.0000 H       1  UNL1        0.0353
     68 H           3.7597    2.4216    0.0000 H       1  UNL1        0.2102
     69 H           9.4067    2.7987    0.0000 H       1  UNL1        0.0649
     70 H           8.5636    4.2854    0.0000 H       1  UNL1        0.0576
@<TRIPOS>BOND
     1     1    11    1
     2     1    18    1
     3     2    13    1
     4     2    24    1
     5     3    16    1
     6     3    30    1
     7     4    15    1
     8     4    57    1
     9     5    18    1
    10     5    61    1
    11     6    19    2
    12     7    24    2
    13     8    29    1
    14     8    68    1
    15     9    30    2
    16    10    35    2
    17    11    12    1
    18    11    13    1
    19    11    15    1
    20    12    14    1
    21    12    19    1
    22    12    39    1
    23    13    16    1
    24    13    26    1
    25    14    17    1
    26    14    21    1
    27    14    27    1
    28    15    23    1
    29    15    24    1
    30    16    17    1
    31    16    40    1
    32    17    41    1
    33    17    42    1
    34    18    19    1
    35    18    20    1
    36    20    22    1
    37    20    29    1
    38    20    43    1
    39    21    30    1
    40    21    31    1
    41    21    44    1
    42    22    25    1
    43    22    28    1
    44    22    45    1
    45    23    25    1
    46    23    46    1
    47    23    47    1
    48    25    48    1
    49    25    49    1
    50    26    50    1
    51    26    51    1
    52    26    52    1
    53    27    53    1
    54    27    54    1
    55    27    55    1
    56    28    32    1
    57    28    34    1
    58    28    35    1
    59    29    33    1
    60    29    56    1
    61    31    58    1
    62    31    59    1
    63    31    60    1
    64    32    33    2
    65    32    36    1
    66    33    62    1
    67    34    63    1
    68    34    64    1
    69    34    65    1
    70    35    37    1
    71    36    38    1
    72    36    66    1
    73    36    67    1
    74    37    38    2
    75    37    69    1
    76    38    70    1
