@<TRIPOS>MOLECULE
IMPHY014490
 106 105 0 0 0
SMALL
GASTEIGER

@<TRIPOS>ATOM
      1 O          24.5167   -0.5950    0.0000 O.3     1  UNL1       -0.3917
      2 O          26.2487   -0.5950    0.0000 O.3     1  UNL1       -0.3917
      3 C          24.5167    0.4050    0.0000 C.3     1  UNL1        0.0576
      4 C          23.6506    0.9050    0.0000 C.3     1  UNL1       -0.0268
      5 C          22.7846    0.4050    0.0000 C.3     1  UNL1       -0.0507
      6 C          21.9186    0.9050    0.0000 C.3     1  UNL1       -0.0530
      7 C          21.0526    0.4050    0.0000 C.3     1  UNL1       -0.0531
      8 C          20.1865    0.9050    0.0000 C.3     1  UNL1       -0.0531
      9 C          19.3205    0.4050    0.0000 C.3     1  UNL1       -0.0531
     10 C          18.4545    0.9050    0.0000 C.3     1  UNL1       -0.0531
     11 C          17.5885    0.4050    0.0000 C.3     1  UNL1       -0.0531
     12 C          25.3827    0.9050    0.0000 C.3     1  UNL1       -0.0007
     13 C          16.7224    0.9050    0.0000 C.3     1  UNL1       -0.0531
     14 C          15.8564    0.4050    0.0000 C.3     1  UNL1       -0.0531
     15 C          14.9904    0.9050    0.0000 C.3     1  UNL1       -0.0531
     16 C          14.1244    0.4050    0.0000 C.3     1  UNL1       -0.0531
     17 C          13.2583    0.9050    0.0000 C.3     1  UNL1       -0.0531
     18 C          12.3923    0.4050    0.0000 C.3     1  UNL1       -0.0531
     19 C          26.2487    0.4050    0.0000 C.3     1  UNL1        0.0576
     20 C          11.5263    0.9050    0.0000 C.3     1  UNL1       -0.0531
     21 C          10.6603    0.4050    0.0000 C.3     1  UNL1       -0.0531
     22 C           9.7942    0.9050    0.0000 C.3     1  UNL1       -0.0531
     23 C           8.9282    0.4050    0.0000 C.3     1  UNL1       -0.0531
     24 C          27.1147    0.9050    0.0000 C.3     1  UNL1       -0.0268
     25 C           8.0622    0.9050    0.0000 C.3     1  UNL1       -0.0531
     26 C           7.1962    0.4050    0.0000 C.3     1  UNL1       -0.0531
     27 C          27.9808    0.4050    0.0000 C.3     1  UNL1       -0.0507
     28 C           6.3301    0.9050    0.0000 C.3     1  UNL1       -0.0531
     29 C           5.4641    0.4050    0.0000 C.3     1  UNL1       -0.0531
     30 C          28.8468    0.9050    0.0000 C.3     1  UNL1       -0.0532
     31 C           4.5981    0.9050    0.0000 C.3     1  UNL1       -0.0531
     32 C           3.7320    0.4050    0.0000 C.3     1  UNL1       -0.0533
     33 C          29.7128    0.4050    0.0000 C.3     1  UNL1       -0.0559
     34 C           2.8660    0.9050    0.0000 C.3     1  UNL1       -0.0559
     35 C          30.5788    0.9050    0.0000 C.3     1  UNL1       -0.0653
     36 C           2.0000    0.4050    0.0000 C.3     1  UNL1       -0.0653
     37 H          23.9797    0.0950    0.0000 H       1  UNL1        0.0594
     38 H          24.0492    1.3800    0.0000 H       1  UNL1        0.0290
     39 H          23.2521    1.3800    0.0000 H       1  UNL1        0.0290
     40 H          22.3861   -0.0699    0.0000 H       1  UNL1        0.0266
     41 H          23.1831   -0.0699    0.0000 H       1  UNL1        0.0266
     42 H          22.3171    1.3800    0.0000 H       1  UNL1        0.0265
     43 H          21.5201    1.3800    0.0000 H       1  UNL1        0.0265
     44 H          20.6540   -0.0699    0.0000 H       1  UNL1        0.0265
     45 H          21.4511   -0.0699    0.0000 H       1  UNL1        0.0265
     46 H          20.5851    1.3800    0.0000 H       1  UNL1        0.0265
     47 H          19.7880    1.3800    0.0000 H       1  UNL1        0.0265
     48 H          18.9220   -0.0699    0.0000 H       1  UNL1        0.0265
     49 H          19.7190   -0.0699    0.0000 H       1  UNL1        0.0265
     50 H          18.8530    1.3800    0.0000 H       1  UNL1        0.0265
     51 H          18.0560    1.3800    0.0000 H       1  UNL1        0.0265
     52 H          17.1899   -0.0699    0.0000 H       1  UNL1        0.0265
     53 H          17.9870   -0.0699    0.0000 H       1  UNL1        0.0265
     54 H          25.7812    1.3800    0.0000 H       1  UNL1        0.0315
     55 H          24.9842    1.3800    0.0000 H       1  UNL1        0.0315
     56 H          17.1210    1.3800    0.0000 H       1  UNL1        0.0265
     57 H          16.3239    1.3800    0.0000 H       1  UNL1        0.0265
     58 H          15.4579   -0.0699    0.0000 H       1  UNL1        0.0265
     59 H          16.2549   -0.0699    0.0000 H       1  UNL1        0.0265
     60 H          15.3889    1.3800    0.0000 H       1  UNL1        0.0265
     61 H          14.5919    1.3800    0.0000 H       1  UNL1        0.0265
     62 H          13.7258   -0.0699    0.0000 H       1  UNL1        0.0265
     63 H          14.5229   -0.0699    0.0000 H       1  UNL1        0.0265
     64 H          13.6569    1.3800    0.0000 H       1  UNL1        0.0265
     65 H          12.8598    1.3800    0.0000 H       1  UNL1        0.0265
     66 H          11.9938   -0.0699    0.0000 H       1  UNL1        0.0265
     67 H          12.7908   -0.0699    0.0000 H       1  UNL1        0.0265
     68 H          25.7118    0.0950    0.0000 H       1  UNL1        0.0594
     69 H          11.9248    1.3800    0.0000 H       1  UNL1        0.0265
     70 H          11.1278    1.3800    0.0000 H       1  UNL1        0.0265
     71 H          10.2617   -0.0699    0.0000 H       1  UNL1        0.0265
     72 H          11.0588   -0.0699    0.0000 H       1  UNL1        0.0265
     73 H          10.1928    1.3800    0.0000 H       1  UNL1        0.0265
     74 H           9.3957    1.3800    0.0000 H       1  UNL1        0.0265
     75 H           8.5297   -0.0699    0.0000 H       1  UNL1        0.0265
     76 H           9.3267   -0.0699    0.0000 H       1  UNL1        0.0265
     77 H          27.5133    1.3800    0.0000 H       1  UNL1        0.0290
     78 H          26.7162    1.3800    0.0000 H       1  UNL1        0.0290
     79 H           8.4607    1.3800    0.0000 H       1  UNL1        0.0265
     80 H           7.6636    1.3800    0.0000 H       1  UNL1        0.0265
     81 H           6.7976   -0.0699    0.0000 H       1  UNL1        0.0265
     82 H           7.5947   -0.0699    0.0000 H       1  UNL1        0.0265
     83 H          27.5822   -0.0699    0.0000 H       1  UNL1        0.0266
     84 H          28.3793   -0.0699    0.0000 H       1  UNL1        0.0266
     85 H           6.7287    1.3800    0.0000 H       1  UNL1        0.0265
     86 H           5.9316    1.3800    0.0000 H       1  UNL1        0.0265
     87 H           5.0656   -0.0699    0.0000 H       1  UNL1        0.0265
     88 H           5.8626   -0.0699    0.0000 H       1  UNL1        0.0265
     89 H          29.2453    1.3800    0.0000 H       1  UNL1        0.0265
     90 H          28.4483    1.3800    0.0000 H       1  UNL1        0.0265
     91 H           4.9966    1.3800    0.0000 H       1  UNL1        0.0265
     92 H           4.1996    1.3800    0.0000 H       1  UNL1        0.0265
     93 H          23.9797   -0.9050    0.0000 H       1  UNL1        0.2098
     94 H           3.3335   -0.0699    0.0000 H       1  UNL1        0.0265
     95 H           4.1306   -0.0699    0.0000 H       1  UNL1        0.0265
     96 H          26.7856   -0.9050    0.0000 H       1  UNL1        0.2098
     97 H          29.3143   -0.0699    0.0000 H       1  UNL1        0.0263
     98 H          30.1113   -0.0699    0.0000 H       1  UNL1        0.0263
     99 H           3.2646    1.3800    0.0000 H       1  UNL1        0.0263
    100 H           2.4675    1.3800    0.0000 H       1  UNL1        0.0263
    101 H          30.8888    0.3681    0.0000 H       1  UNL1        0.0230
    102 H          31.1158    1.2150    0.0000 H       1  UNL1        0.0230
    103 H          30.2688    1.4419    0.0000 H       1  UNL1        0.0230
    104 H           1.6900    0.9419    0.0000 H       1  UNL1        0.0230
    105 H           1.4631    0.0950    0.0000 H       1  UNL1        0.0230
    106 H           2.3100   -0.1319    0.0000 H       1  UNL1        0.0230
@<TRIPOS>BOND
     1     1     3    1
     2     1    93    1
     3     2    19    1
     4     2    96    1
     5     3     4    1
     6     3    12    1
     7     3    37    1
     8     4     5    1
     9     4    38    1
    10     4    39    1
    11     5     6    1
    12     5    40    1
    13     5    41    1
    14     6     7    1
    15     6    42    1
    16     6    43    1
    17     7     8    1
    18     7    44    1
    19     7    45    1
    20     8     9    1
    21     8    46    1
    22     8    47    1
    23     9    10    1
    24     9    48    1
    25     9    49    1
    26    10    11    1
    27    10    50    1
    28    10    51    1
    29    11    13    1
    30    11    52    1
    31    11    53    1
    32    12    19    1
    33    12    54    1
    34    12    55    1
    35    13    14    1
    36    13    56    1
    37    13    57    1
    38    14    15    1
    39    14    58    1
    40    14    59    1
    41    15    16    1
    42    15    60    1
    43    15    61    1
    44    16    17    1
    45    16    62    1
    46    16    63    1
    47    17    18    1
    48    17    64    1
    49    17    65    1
    50    18    20    1
    51    18    66    1
    52    18    67    1
    53    19    24    1
    54    19    68    1
    55    20    21    1
    56    20    69    1
    57    20    70    1
    58    21    22    1
    59    21    71    1
    60    21    72    1
    61    22    23    1
    62    22    73    1
    63    22    74    1
    64    23    25    1
    65    23    75    1
    66    23    76    1
    67    24    27    1
    68    24    77    1
    69    24    78    1
    70    25    26    1
    71    25    79    1
    72    25    80    1
    73    26    28    1
    74    26    81    1
    75    26    82    1
    76    27    30    1
    77    27    83    1
    78    27    84    1
    79    28    29    1
    80    28    85    1
    81    28    86    1
    82    29    31    1
    83    29    87    1
    84    29    88    1
    85    30    33    1
    86    30    89    1
    87    30    90    1
    88    31    32    1
    89    31    91    1
    90    31    92    1
    91    32    34    1
    92    32    94    1
    93    32    95    1
    94    33    35    1
    95    33    97    1
    96    33    98    1
    97    34    36    1
    98    34    99    1
    99    34   100    1
   100    35   101    1
   101    35   102    1
   102    35   103    1
   103    36   104    1
   104    36   105    1
   105    36   106    1
