@<TRIPOS>MOLECULE
IMPHY013279
 97 97 0 0 0
SMALL
GASTEIGER

@<TRIPOS>ATOM
      1 O          20.5000   -5.9462    0.0000 O.3     1  UNL1       -0.3607
      2 C          21.3660   -5.4462    0.0000 C.3     1  UNL1        0.0974
      3 C          20.5000   -4.9462    0.0000 C.3     1  UNL1        0.1066
      4 C          21.8660   -4.5801    0.0000 C.3     1  UNL1       -0.0178
      5 C          21.8660   -6.3122    0.0000 C.3     1  UNL1       -0.0330
      6 C          20.0000   -4.0801    0.0000 C.2     1  UNL1       -0.0526
      7 C          22.8660   -4.5801    0.0000 C.3     1  UNL1       -0.0318
      8 C          19.0000   -4.0801    0.0000 C.2     1  UNL1       -0.0603
      9 C          23.3660   -3.7141    0.0000 C.2     1  UNL1       -0.0852
     10 C          24.3660   -3.7141    0.0000 C.2     1  UNL1       -0.0796
     11 C          18.5000   -3.2141    0.0000 C.2     1  UNL1       -0.0507
     12 C          24.8660   -2.8481    0.0000 C.3     1  UNL1       -0.0440
     13 C          24.8660   -4.5801    0.0000 C.3     1  UNL1       -0.0440
     14 C          19.0000   -2.3481    0.0000 C.3     1  UNL1       -0.0397
     15 C          17.5000   -3.2141    0.0000 C.2     1  UNL1       -0.0588
     16 C          17.0000   -2.3481    0.0000 C.2     1  UNL1       -0.0613
     17 C          16.0000   -2.3481    0.0000 C.2     1  UNL1       -0.0588
     18 C          15.5000   -1.4820    0.0000 C.2     1  UNL1       -0.0504
     19 C          16.0000   -0.6160    0.0000 C.3     1  UNL1       -0.0397
     20 C          14.5000   -1.4820    0.0000 C.2     1  UNL1       -0.0588
     21 C          14.0000   -0.6160    0.0000 C.2     1  UNL1       -0.0615
     22 C           5.0000    4.5801    0.0000 C.3     1  UNL1       -0.0283
     23 C           4.0000    4.5801    0.0000 C.3     1  UNL1       -0.0308
     24 C           5.5000    3.7141    0.0000 C.2     1  UNL1       -0.0723
     25 C          13.0000   -0.6160    0.0000 C.2     1  UNL1       -0.0615
     26 C           3.5000    5.4462    0.0000 C.2     1  UNL1       -0.0850
     27 C           2.5000    5.4462    0.0000 C.2     1  UNL1       -0.0796
     28 C           5.0000    2.8481    0.0000 C.3     1  UNL1       -0.0435
     29 C           6.5000    3.7141    0.0000 C.2     1  UNL1       -0.0628
     30 C          12.5000    0.2500    0.0000 C.2     1  UNL1       -0.0588
     31 C           2.0000    6.3122    0.0000 C.3     1  UNL1       -0.0440
     32 C           2.0000    4.5801    0.0000 C.3     1  UNL1       -0.0440
     33 C           7.0000    2.8481    0.0000 C.2     1  UNL1       -0.0616
     34 C          11.5000    0.2500    0.0000 C.2     1  UNL1       -0.0504
     35 C           8.0000    2.8481    0.0000 C.2     1  UNL1       -0.0588
     36 C           8.5000    1.9820    0.0000 C.2     1  UNL1       -0.0504
     37 C          11.0000    1.1160    0.0000 C.2     1  UNL1       -0.0588
     38 C           9.5000    1.9820    0.0000 C.2     1  UNL1       -0.0588
     39 C          11.0000   -0.6160    0.0000 C.3     1  UNL1       -0.0397
     40 C          10.0000    1.1160    0.0000 C.2     1  UNL1       -0.0613
     41 C           8.0000    1.1160    0.0000 C.3     1  UNL1       -0.0397
     42 H          19.9011   -5.1066    0.0000 H       1  UNL1        0.0669
     43 H          21.9737   -3.9696    0.0000 H       1  UNL1        0.0297
     44 H          21.2834   -4.3681    0.0000 H       1  UNL1        0.0297
     45 H          21.3291   -6.6222    0.0000 H       1  UNL1        0.0258
     46 H          22.1760   -6.8491    0.0000 H       1  UNL1        0.0258
     47 H          22.4030   -6.0022    0.0000 H       1  UNL1        0.0258
     48 H          20.3100   -3.5432    0.0000 H       1  UNL1        0.0599
     49 H          22.7584   -5.1907    0.0000 H       1  UNL1        0.0308
     50 H          23.4486   -4.7922    0.0000 H       1  UNL1        0.0308
     51 H          18.6900   -4.6171    0.0000 H       1  UNL1        0.0618
     52 H          23.0560   -3.1772    0.0000 H       1  UNL1        0.0571
     53 H          25.4030   -3.1581    0.0000 H       1  UNL1        0.0274
     54 H          25.1760   -2.3111    0.0000 H       1  UNL1        0.0274
     55 H          24.3291   -2.5381    0.0000 H       1  UNL1        0.0274
     56 H          24.3291   -4.8901    0.0000 H       1  UNL1        0.0274
     57 H          25.1760   -5.1171    0.0000 H       1  UNL1        0.0274
     58 H          25.4030   -4.2701    0.0000 H       1  UNL1        0.0274
     59 H          19.5369   -2.6581    0.0000 H       1  UNL1        0.0278
     60 H          19.3100   -1.8111    0.0000 H       1  UNL1        0.0278
     61 H          18.4631   -2.0381    0.0000 H       1  UNL1        0.0278
     62 H          17.1900   -3.7510    0.0000 H       1  UNL1        0.0620
     63 H          17.3100   -1.8111    0.0000 H       1  UNL1        0.0618
     64 H          15.6900   -2.8850    0.0000 H       1  UNL1        0.0620
     65 H          16.5369   -0.9260    0.0000 H       1  UNL1        0.0278
     66 H          16.3100   -0.0791    0.0000 H       1  UNL1        0.0278
     67 H          15.4631   -0.3060    0.0000 H       1  UNL1        0.0278
     68 H          14.1900   -2.0190    0.0000 H       1  UNL1        0.0620
     69 H          14.3100   -0.0791    0.0000 H       1  UNL1        0.0618
     70 H           5.5826    4.7922    0.0000 H       1  UNL1        0.0313
     71 H           4.8923    5.1907    0.0000 H       1  UNL1        0.0313
     72 H           3.4174    4.3681    0.0000 H       1  UNL1        0.0310
     73 H           4.1077    3.9696    0.0000 H       1  UNL1        0.0310
     74 H          12.6900   -1.1530    0.0000 H       1  UNL1        0.0618
     75 H           3.8100    5.9831    0.0000 H       1  UNL1        0.0572
     76 H           4.4631    3.1581    0.0000 H       1  UNL1        0.0274
     77 H           4.6900    2.3111    0.0000 H       1  UNL1        0.0274
     78 H           5.5369    2.5381    0.0000 H       1  UNL1        0.0274
     79 H           6.8100    4.2510    0.0000 H       1  UNL1        0.0617
     80 H          12.8100    0.7869    0.0000 H       1  UNL1        0.0620
     81 H           2.5369    6.6222    0.0000 H       1  UNL1        0.0274
     82 H           1.6900    6.8491    0.0000 H       1  UNL1        0.0274
     83 H           1.4631    6.0022    0.0000 H       1  UNL1        0.0274
     84 H           1.4631    4.8901    0.0000 H       1  UNL1        0.0274
     85 H           1.6900    4.0432    0.0000 H       1  UNL1        0.0274
     86 H           2.5369    4.2701    0.0000 H       1  UNL1        0.0274
     87 H           6.6900    2.3111    0.0000 H       1  UNL1        0.0618
     88 H           8.3100    3.3850    0.0000 H       1  UNL1        0.0620
     89 H          11.3100    1.6530    0.0000 H       1  UNL1        0.0620
     90 H           9.8100    2.5190    0.0000 H       1  UNL1        0.0620
     91 H          10.4631   -0.3060    0.0000 H       1  UNL1        0.0278
     92 H          10.6900   -1.1530    0.0000 H       1  UNL1        0.0278
     93 H          11.5369   -0.9260    0.0000 H       1  UNL1        0.0278
     94 H           7.4631    1.4260    0.0000 H       1  UNL1        0.0278
     95 H           7.6900    0.5791    0.0000 H       1  UNL1        0.0278
     96 H           8.5369    0.8060    0.0000 H       1  UNL1        0.0278
     97 H           9.6900    0.5791    0.0000 H       1  UNL1        0.0618
@<TRIPOS>BOND
     1     1     2    1
     2     1     3    1
     3     2     3    1
     4     2     4    1
     5     2     5    1
     6     3     6    1
     7     3    42    1
     8     4     7    1
     9     4    43    1
    10     4    44    1
    11     5    45    1
    12     5    46    1
    13     5    47    1
    14     6     8    2
    15     6    48    1
    16     7     9    1
    17     7    49    1
    18     7    50    1
    19     8    11    1
    20     8    51    1
    21     9    10    2
    22     9    52    1
    23    10    12    1
    24    10    13    1
    25    11    14    1
    26    11    15    2
    27    12    53    1
    28    12    54    1
    29    12    55    1
    30    13    56    1
    31    13    57    1
    32    13    58    1
    33    14    59    1
    34    14    60    1
    35    14    61    1
    36    15    16    1
    37    15    62    1
    38    16    17    2
    39    16    63    1
    40    17    18    1
    41    17    64    1
    42    18    19    1
    43    18    20    2
    44    19    65    1
    45    19    66    1
    46    19    67    1
    47    20    21    1
    48    20    68    1
    49    21    25    2
    50    21    69    1
    51    22    23    1
    52    22    24    1
    53    22    70    1
    54    22    71    1
    55    23    26    1
    56    23    72    1
    57    23    73    1
    58    24    28    1
    59    24    29    2
    60    25    30    1
    61    25    74    1
    62    26    27    2
    63    26    75    1
    64    27    31    1
    65    27    32    1
    66    28    76    1
    67    28    77    1
    68    28    78    1
    69    29    33    1
    70    29    79    1
    71    30    34    2
    72    30    80    1
    73    31    81    1
    74    31    82    1
    75    31    83    1
    76    32    84    1
    77    32    85    1
    78    32    86    1
    79    33    35    2
    80    33    87    1
    81    34    37    1
    82    34    39    1
    83    35    36    1
    84    35    88    1
    85    36    38    2
    86    36    41    1
    87    37    40    2
    88    37    89    1
    89    38    40    1
    90    38    90    1
    91    39    91    1
    92    39    92    1
    93    39    93    1
    94    40    97    1
    95    41    94    1
    96    41    95    1
    97    41    96    1
