@<TRIPOS>MOLECULE
IMPHY016326
 15 15 0 0 0
SMALL
GASTEIGER

@<TRIPOS>ATOM
      1 O           3.7601   -0.7694    0.0000 O.2     1  UNL1       -0.4651
      2 C           4.5691   -0.1816    0.0000 C.ar    1  UNL1        0.1022
      3 C           2.9511   -0.1816    0.0000 C.ar    1  UNL1        0.1022
      4 C           4.2601    0.7694    0.0000 C.ar    1  UNL1       -0.0207
      5 C           3.2601    0.7694    0.0000 C.ar    1  UNL1       -0.0207
      6 C           5.5202   -0.4907    0.0000 C.3     1  UNL1       -0.0064
      7 C           2.0000   -0.4907    0.0000 C.3     1  UNL1       -0.0064
      8 H           4.6245    1.2710    0.0000 H       1  UNL1        0.0652
      9 H           2.8956    1.2710    0.0000 H       1  UNL1        0.0652
     10 H           5.3286   -1.0803    0.0000 H       1  UNL1        0.0308
     11 H           6.1098   -0.6822    0.0000 H       1  UNL1        0.0308
     12 H           5.7117    0.0990    0.0000 H       1  UNL1        0.0308
     13 H           1.8084    0.0990    0.0000 H       1  UNL1        0.0308
     14 H           1.4103   -0.6822    0.0000 H       1  UNL1        0.0308
     15 H           2.1916   -1.0803    0.0000 H       1  UNL1        0.0308
@<TRIPOS>BOND
     1     1     2   ar
     2     1     3   ar
     3     2     4   ar
     4     2     6    1
     5     3     5   ar
     6     3     7    1
     7     4     5   ar
     8     4     8    1
     9     5     9    1
    10     6    10    1
    11     6    11    1
    12     6    12    1
    13     7    13    1
    14     7    14    1
    15     7    15    1
