@<TRIPOS>MOLECULE
IMPHY012248
 21 23 0 0 0
SMALL
GASTEIGER

@<TRIPOS>ATOM
      1 O           6.4783    0.8047    0.0000 O.2     1  UNL1       -0.4589
      2 O           4.6660   -2.0000    0.0000 O.2     1  UNL1       -0.2865
      3 O           4.6660    2.0000    0.0000 O.2     1  UNL1       -0.2833
      4 C           3.8000   -0.5000    0.0000 C.ar    1  UNL1        0.0333
      5 C           3.8000    0.5000    0.0000 C.ar    1  UNL1        0.0362
      6 C           5.5321   -0.5000    0.0000 C.ar    1  UNL1        0.0712
      7 C           5.5321    0.5000    0.0000 C.ar    1  UNL1        0.1855
      8 C           4.6660   -1.0000    0.0000 C.2     1  UNL1        0.1976
      9 C           4.6660    1.0000    0.0000 C.2     1  UNL1        0.2293
     10 C           6.4783   -0.8047    0.0000 C.ar    1  UNL1       -0.0123
     11 C           2.9061   -1.0347    0.0000 C.ar    1  UNL1       -0.0502
     12 C           2.9061    1.0347    0.0000 C.ar    1  UNL1       -0.0501
     13 C           7.0619   -0.0000    0.0000 C.ar    1  UNL1        0.0934
     14 C           2.0000   -0.5208    0.0000 C.ar    1  UNL1       -0.0610
     15 C           2.0000    0.5208    0.0000 C.ar    1  UNL1       -0.0610
     16 H           6.6709   -1.3940    0.0000 H       1  UNL1        0.0656
     17 H           2.9132   -1.6546    0.0000 H       1  UNL1        0.0625
     18 H           2.9132    1.6546    0.0000 H       1  UNL1        0.0625
     19 H           7.6819   -0.0000    0.0000 H       1  UNL1        0.1030
     20 H           1.4643   -0.8329    0.0000 H       1  UNL1        0.0618
     21 H           1.4643    0.8329    0.0000 H       1  UNL1        0.0618
@<TRIPOS>BOND
     1     1     7   ar
     2     1    13   ar
     3     2     8    2
     4     3     9    2
     5     4     5   ar
     6     4     8    1
     7     4    11   ar
     8     5     9    1
     9     5    12   ar
    10     6     7   ar
    11     6     8    1
    12     6    10   ar
    13     7     9    1
    14    10    13   ar
    15    10    16    1
    16    11    14   ar
    17    11    17    1
    18    12    15   ar
    19    12    18    1
    20    13    19    1
    21    14    15   ar
    22    14    20    1
    23    15    21    1
