@<TRIPOS>MOLECULE
IMPHY013896
 44 47 0 0 0
SMALL
GASTEIGER

@<TRIPOS>ATOM
      1 O           5.0960    1.6722    0.0000 O.3     1  UNL1       -0.3911
      2 O           6.6263   -2.2009    0.0000 O.2     1  UNL1       -0.2954
      3 N           7.0337    0.0152    0.0000 N.3     1  UNL1       -0.2898
      4 C           5.3016    0.0152    0.0000 C.3     1  UNL1        0.0252
      5 C           6.1676   -0.4848    0.0000 C.3     1  UNL1        0.0887
      6 C           4.5646   -0.6519    0.0000 C.3     1  UNL1       -0.0240
      7 C           4.6187    0.7935    0.0000 C.3     1  UNL1        0.0635
      8 C           5.3016    1.0152    0.0000 C.3     1  UNL1       -0.0415
      9 C           6.8347   -1.2218    0.0000 C.3     1  UNL1       -0.0258
     10 C           4.9697   -1.5597    0.0000 C.3     1  UNL1        0.0112
     11 C           5.9584   -1.4566    0.0000 C.2     1  UNL1        0.1543
     12 C           3.5558   -0.8854    0.0000 C.3     1  UNL1       -0.0465
     13 C           3.4607    0.6765    0.0000 C.3     1  UNL1       -0.0237
     14 C           2.9992   -0.2161    0.0000 C.3     1  UNL1       -0.0413
     15 C           6.1676    1.5152    0.0000 C.3     1  UNL1       -0.0395
     16 C           7.0337    1.0152    0.0000 C.3     1  UNL1       -0.0002
     17 C           8.0055   -0.1940    0.0000 C.3     1  UNL1       -0.0001
     18 C           7.9255   -0.9997    0.0000 C.3     1  UNL1       -0.0381
     19 C           2.0000   -0.2575    0.0000 C.3     1  UNL1       -0.0623
     20 H           4.1859   -1.4129    0.0000 H       1  UNL1        0.0312
     21 H           4.2753    1.3098    0.0000 H       1  UNL1        0.0600
     22 H           5.0896    1.5978    0.0000 H       1  UNL1        0.0273
     23 H           4.6910    0.9075    0.0000 H       1  UNL1        0.0273
     24 H           6.3086   -1.5498    0.0000 H       1  UNL1        0.0288
     25 H           7.0642   -1.7978    0.0000 H       1  UNL1        0.0288
     26 H           4.3801   -1.7514    0.0000 H       1  UNL1        0.0345
     27 H           5.0984   -2.1662    0.0000 H       1  UNL1        0.0345
     28 H           3.0235   -1.2033    0.0000 H       1  UNL1        0.0271
     29 H           3.7874   -1.4605    0.0000 H       1  UNL1        0.0271
     30 H           3.5176    1.2938    0.0000 H       1  UNL1        0.0293
     31 H           2.8656    0.8505    0.0000 H       1  UNL1        0.0293
     32 H           2.7476   -0.7828    0.0000 H       1  UNL1        0.0299
     33 H           6.5662    1.9901    0.0000 H       1  UNL1        0.0278
     34 H           5.7691    1.9901    0.0000 H       1  UNL1        0.0278
     35 H           7.6442    0.9075    0.0000 H       1  UNL1        0.0427
     36 H           7.2457    1.5978    0.0000 H       1  UNL1        0.0427
     37 H           8.6197   -0.2785    0.0000 H       1  UNL1        0.0427
     38 H           8.1130    0.4166    0.0000 H       1  UNL1        0.0427
     39 H           7.9880   -1.6166    0.0000 H       1  UNL1        0.0278
     40 H           8.5455   -0.9991    0.0000 H       1  UNL1        0.0278
     41 H           4.7722    2.2009    0.0000 H       1  UNL1        0.2098
     42 H           1.9744    0.3620    0.0000 H       1  UNL1        0.0232
     43 H           1.3805   -0.2831    0.0000 H       1  UNL1        0.0232
     44 H           2.0256   -0.8769    0.0000 H       1  UNL1        0.0232
@<TRIPOS>BOND
     1     1     7    1
     2     1    41    1
     3     2    11    2
     4     3     5    1
     5     3    16    1
     6     3    17    1
     7     4     5    1
     8     4     6    1
     9     4     7    1
    10     4     8    1
    11     5     9    1
    12     5    11    1
    13     6    10    1
    14     6    12    1
    15     6    20    1
    16     7    13    1
    17     7    21    1
    18     8    15    1
    19     8    22    1
    20     8    23    1
    21     9    18    1
    22     9    24    1
    23     9    25    1
    24    10    11    1
    25    10    26    1
    26    10    27    1
    27    12    14    1
    28    12    28    1
    29    12    29    1
    30    13    14    1
    31    13    30    1
    32    13    31    1
    33    14    19    1
    34    14    32    1
    35    15    16    1
    36    15    33    1
    37    15    34    1
    38    16    35    1
    39    16    36    1
    40    17    18    1
    41    17    37    1
    42    17    38    1
    43    18    39    1
    44    18    40    1
    45    19    42    1
    46    19    43    1
    47    19    44    1
