@<TRIPOS>MOLECULE
IMPHY005876
 42 45 0 0 0
SMALL
GASTEIGER

@<TRIPOS>ATOM
      1 O          10.4263    1.6076    0.0000 O.3     1  UNL1       -0.4815
      2 O           6.0682   -1.9270    0.0000 O.2     1  UNL1       -0.4618
      3 O           8.6663   -1.4270    0.0000 O.3     1  UNL1       -0.5054
      4 O           6.0682    1.0730    0.0000 O.2     1  UNL1       -0.2863
      5 O           4.3198    1.1075    0.0000 O.3     1  UNL1       -0.5058
      6 O           2.5381   -1.9512    0.0000 O.3     1  UNL1       -0.5065
      7 C          11.3324    1.0938    0.0000 C.3     1  UNL1        0.1235
      8 C           9.5323    0.0729    0.0000 C.ar    1  UNL1        0.0585
      9 C           9.5323    1.0730    0.0000 C.ar    1  UNL1        0.1324
     10 C          11.3324    0.0521    0.0000 C.2     1  UNL1       -0.0408
     11 C          12.3324    1.0976    0.0000 C.3     1  UNL1       -0.0215
     12 C          11.8290    1.9617    0.0000 C.3     1  UNL1       -0.0215
     13 C          10.4263   -0.4617    0.0000 C.2     1  UNL1       -0.0478
     14 C           7.8003    0.0729    0.0000 C.ar    1  UNL1        0.0310
     15 C           8.6663   -0.4270    0.0000 C.ar    1  UNL1        0.1353
     16 C           8.6663    1.5730    0.0000 C.ar    1  UNL1       -0.0185
     17 C           6.9343   -0.4270    0.0000 C.ar    1  UNL1        0.0679
     18 C           7.8003    1.0730    0.0000 C.ar    1  UNL1       -0.0468
     19 C           6.0682    0.0729    0.0000 C.ar    1  UNL1        0.2038
     20 C           5.2022   -0.4270    0.0000 C.ar    1  UNL1        0.1060
     21 C           5.2022   -1.4270    0.0000 C.ar    1  UNL1        0.1454
     22 C           6.9343   -1.4270    0.0000 C.ar    1  UNL1        0.1040
     23 C           4.3083    0.1076    0.0000 C.ar    1  UNL1        0.1347
     24 C           4.3083   -1.9617    0.0000 C.ar    1  UNL1        0.0231
     25 C           3.4022   -0.4062    0.0000 C.ar    1  UNL1        0.0223
     26 C           3.4022   -1.4479    0.0000 C.ar    1  UNL1        0.1239
     27 H          11.8681   -0.2599    0.0000 H       1  UNL1        0.0611
     28 H          12.3347    0.4776    0.0000 H       1  UNL1        0.0271
     29 H          12.9524    1.1000    0.0000 H       1  UNL1        0.0271
     30 H          12.3300    1.7176    0.0000 H       1  UNL1        0.0271
     31 H          12.3671    1.6538    0.0000 H       1  UNL1        0.0271
     32 H          12.1369    2.4998    0.0000 H       1  UNL1        0.0271
     33 H          11.2909    2.2696    0.0000 H       1  UNL1        0.0271
     34 H          10.4191   -1.0817    0.0000 H       1  UNL1        0.0624
     35 H           8.6663    2.1930    0.0000 H       1  UNL1        0.0654
     36 H           7.2634    1.3829    0.0000 H       1  UNL1        0.0626
     37 H           7.4712   -1.7370    0.0000 H       1  UNL1        0.1037
     38 H           4.3154   -2.5817    0.0000 H       1  UNL1        0.0691
     39 H           9.2033   -1.7370    0.0000 H       1  UNL1        0.2922
     40 H           2.8665   -0.0942    0.0000 H       1  UNL1        0.0691
     41 H           3.7865    1.4237    0.0000 H       1  UNL1        0.2922
     42 H           2.0000   -1.6433    0.0000 H       1  UNL1        0.2921
@<TRIPOS>BOND
     1     1     7    1
     2     1     9    1
     3     2    21   ar
     4     2    22   ar
     5     3    15    1
     6     3    39    1
     7     4    19    2
     8     5    23    1
     9     5    41    1
    10     6    26    1
    11     6    42    1
    12     7    10    1
    13     7    11    1
    14     7    12    1
    15     8     9   ar
    16     8    13    1
    17     8    15   ar
    18     9    16   ar
    19    10    13    2
    20    10    27    1
    21    11    28    1
    22    11    29    1
    23    11    30    1
    24    12    31    1
    25    12    32    1
    26    12    33    1
    27    13    34    1
    28    14    15   ar
    29    14    17    1
    30    14    18   ar
    31    16    18   ar
    32    16    35    1
    33    17    19   ar
    34    17    22   ar
    35    18    36    1
    36    19    20   ar
    37    20    21   ar
    38    20    23   ar
    39    21    24   ar
    40    22    37    1
    41    23    25   ar
    42    24    26   ar
    43    24    38    1
    44    25    26   ar
    45    25    40    1
