@<TRIPOS>MOLECULE
IMPHY017479
 27 28 0 0 0
SMALL
GASTEIGER

@<TRIPOS>ATOM
      1 O           3.7320    1.5000    0.0000 O.2     1  UNL1       -0.2968
      2 C           5.4646   -0.5000    0.0000 C.3     1  UNL1       -0.0216
      3 C           4.5981   -1.0000    0.0000 C.3     1  UNL1       -0.0252
      4 C           4.5981   -0.0000    0.0000 C.3     1  UNL1        0.0265
      5 C           3.7320   -1.5000    0.0000 C.3     1  UNL1       -0.0484
      6 C           3.7320    0.5000    0.0000 C.2     1  UNL1        0.1400
      7 C           5.9646   -1.3660    0.0000 C.3     1  UNL1       -0.0589
      8 C           5.9646    0.3660    0.0000 C.3     1  UNL1       -0.0589
      9 C           2.8660   -1.0000    0.0000 C.3     1  UNL1       -0.0435
     10 C           2.8660    0.0000    0.0000 C.3     1  UNL1        0.0150
     11 C           2.0000    0.5000    0.0000 C.3     1  UNL1       -0.0557
     12 H           4.9080   -1.5370    0.0000 H       1  UNL1        0.0313
     13 H           4.9080    0.5370    0.0000 H       1  UNL1        0.0386
     14 H           3.3335   -1.9750    0.0000 H       1  UNL1        0.0268
     15 H           4.1306   -1.9750    0.0000 H       1  UNL1        0.0268
     16 H           5.4277   -1.6760    0.0000 H       1  UNL1        0.0235
     17 H           6.2746   -1.9030    0.0000 H       1  UNL1        0.0235
     18 H           6.5016   -1.0560    0.0000 H       1  UNL1        0.0235
     19 H           6.5016    0.0560    0.0000 H       1  UNL1        0.0235
     20 H           6.2746    0.9030    0.0000 H       1  UNL1        0.0235
     21 H           5.4277    0.6760    0.0000 H       1  UNL1        0.0235
     22 H           2.2554   -0.8923    0.0000 H       1  UNL1        0.0272
     23 H           2.6540   -1.5826    0.0000 H       1  UNL1        0.0272
     24 H           2.8660    0.6200    0.0000 H       1  UNL1        0.0375
     25 H           2.3100    1.0369    0.0000 H       1  UNL1        0.0236
     26 H           1.4631    0.8100    0.0000 H       1  UNL1        0.0236
     27 H           1.6900   -0.0369    0.0000 H       1  UNL1        0.0236
@<TRIPOS>BOND
     1     1     6    2
     2     2     3    1
     3     2     4    1
     4     2     7    1
     5     2     8    1
     6     3     4    1
     7     3     5    1
     8     3    12    1
     9     4     6    1
    10     4    13    1
    11     5     9    1
    12     5    14    1
    13     5    15    1
    14     6    10    1
    15     7    16    1
    16     7    17    1
    17     7    18    1
    18     8    19    1
    19     8    20    1
    20     8    21    1
    21     9    10    1
    22     9    22    1
    23     9    23    1
    24    10    11    1
    25    10    24    1
    26    11    25    1
    27    11    26    1
    28    11    27    1
