@<TRIPOS>MOLECULE
IMPHY005265
 46 48 0 0 0
SMALL
GASTEIGER

@<TRIPOS>ATOM
      1 O           8.1301   -0.6154    0.0000 O.3     1  UNL1       -0.4802
      2 O           9.8622    1.3846    0.0000 O.3     1  UNL1       -0.3798
      3 O           8.1301    2.3846    0.0000 O.2     1  UNL1       -0.2889
      4 O           6.3817    2.4192    0.0000 O.3     1  UNL1       -0.5055
      5 O           4.6000   -0.6395    0.0000 O.3     1  UNL1       -0.5062
      6 O          12.4602   -2.1154    0.0000 O.3     1  UNL1       -0.5068
      7 C           8.9961   -0.1154    0.0000 C.3     1  UNL1        0.1581
      8 C           8.9961    0.8846    0.0000 C.3     1  UNL1        0.1585
      9 C           7.2641    0.8846    0.0000 C.ar    1  UNL1        0.1036
     10 C           8.1301    1.3846    0.0000 C.2     1  UNL1        0.2024
     11 C           7.2641   -0.1154    0.0000 C.ar    1  UNL1        0.1391
     12 C           9.8622   -0.6154    0.0000 C.ar    1  UNL1       -0.0042
     13 C           6.3701    1.4193    0.0000 C.ar    1  UNL1        0.1379
     14 C           5.4641    0.9054    0.0000 C.ar    1  UNL1        0.0400
     15 C           6.3701   -0.6501    0.0000 C.ar    1  UNL1        0.0228
     16 C           5.4641   -0.1362    0.0000 C.ar    1  UNL1        0.1273
     17 C           4.6000    1.4088    0.0000 C.3     1  UNL1       -0.0023
     18 C           9.8622   -1.6154    0.0000 C.ar    1  UNL1       -0.0515
     19 C          10.7282   -0.1154    0.0000 C.ar    1  UNL1       -0.0515
     20 C           3.7320    0.9121    0.0000 C.2     1  UNL1       -0.0807
     21 C          10.7282   -2.1154    0.0000 C.ar    1  UNL1       -0.0198
     22 C          11.5942   -0.6154    0.0000 C.ar    1  UNL1       -0.0198
     23 C          11.5942   -1.6154    0.0000 C.ar    1  UNL1        0.1169
     24 C           2.8680    1.4154    0.0000 C.2     1  UNL1       -0.0793
     25 C           2.0000    0.9188    0.0000 C.3     1  UNL1       -0.0440
     26 C           2.8718    2.4154    0.0000 C.3     1  UNL1       -0.0440
     27 H           9.5331    0.1946    0.0000 H       1  UNL1        0.0815
     28 H           8.9961    1.5046    0.0000 H       1  UNL1        0.0718
     29 H           6.3773   -1.2700    0.0000 H       1  UNL1        0.0691
     30 H           5.0003    1.8822    0.0000 H       1  UNL1        0.0358
     31 H           4.2033    1.8852    0.0000 H       1  UNL1        0.0358
     32 H           9.3252   -1.9254    0.0000 H       1  UNL1        0.0623
     33 H          10.7282    0.5046    0.0000 H       1  UNL1        0.0623
     34 H           9.8622    2.0046    0.0000 H       1  UNL1        0.2105
     35 H           3.7296    0.2921    0.0000 H       1  UNL1        0.0575
     36 H          10.7282   -2.7354    0.0000 H       1  UNL1        0.0654
     37 H          12.1311   -0.3054    0.0000 H       1  UNL1        0.0654
     38 H           5.8484    2.7354    0.0000 H       1  UNL1        0.2922
     39 H           4.6024   -1.2595    0.0000 H       1  UNL1        0.2921
     40 H           3.4918    2.4130    0.0000 H       1  UNL1        0.0274
     41 H           2.8742    3.0354    0.0000 H       1  UNL1        0.0274
     42 H           2.2518    2.4178    0.0000 H       1  UNL1        0.0274
     43 H           1.6921    1.4569    0.0000 H       1  UNL1        0.0274
     44 H           1.4619    0.6108    0.0000 H       1  UNL1        0.0274
     45 H           2.3079    0.3806    0.0000 H       1  UNL1        0.0274
     46 H          12.4602   -2.7354    0.0000 H       1  UNL1        0.2921
@<TRIPOS>BOND
     1     1     7    1
     2     1    11    1
     3     8     2    1
     4     2    34    1
     5     3    10    2
     6     4    13    1
     7     4    38    1
     8     5    16    1
     9     5    39    1
    10     6    23    1
    11     6    46    1
    12     7     8    1
    13     7    12    1
    14     7    27    1
    15     8    10    1
    16     8    28    1
    17     9    10    1
    18     9    11   ar
    19     9    13   ar
    20    11    15   ar
    21    12    18   ar
    22    12    19   ar
    23    13    14   ar
    24    14    16   ar
    25    14    17    1
    26    15    16   ar
    27    15    29    1
    28    17    20    1
    29    17    30    1
    30    17    31    1
    31    18    21   ar
    32    18    32    1
    33    19    22   ar
    34    19    33    1
    35    20    24    2
    36    20    35    1
    37    21    23   ar
    38    21    36    1
    39    22    23   ar
    40    22    37    1
    41    24    25    1
    42    24    26    1
    43    25    43    1
    44    25    44    1
    45    25    45    1
    46    26    40    1
    47    26    41    1
    48    26    42    1
