@<TRIPOS>MOLECULE
IMPHY017683
 40 40 0 0 0
SMALL
GASTEIGER

@<TRIPOS>ATOM
      1 O           2.5369    0.4330    0.0000 O.3     1  UNL1       -0.5062
      2 C           4.2690    1.4330    0.0000 C.3     1  UNL1       -0.0092
      3 C           6.0010   -1.5670    0.0000 C.3     1  UNL1       -0.0127
      4 C           4.2690    0.4330    0.0000 C.ar    1  UNL1       -0.0000
      5 C           5.1350   -1.0670    0.0000 C.ar    1  UNL1       -0.0412
      6 C           5.1350   -0.0670    0.0000 C.ar    1  UNL1       -0.0509
      7 C           3.4030   -0.0670    0.0000 C.ar    1  UNL1        0.1234
      8 C           4.2690    2.4330    0.0000 C.3     1  UNL1       -0.0559
      9 C           5.2690    1.4330    0.0000 C.3     1  UNL1       -0.0559
     10 C           3.2690    1.4330    0.0000 C.3     1  UNL1       -0.0559
     11 C           4.2690   -1.5670    0.0000 C.ar    1  UNL1       -0.0517
     12 C           6.8671   -2.0670    0.0000 C.3     1  UNL1       -0.0560
     13 C           5.5010   -2.4330    0.0000 C.3     1  UNL1       -0.0560
     14 C           6.5010   -0.7010    0.0000 C.3     1  UNL1       -0.0560
     15 C           3.4030   -1.0670    0.0000 C.ar    1  UNL1       -0.0085
     16 C           2.5369   -1.5670    0.0000 C.3     1  UNL1       -0.0362
     17 H           5.6720    0.2430    0.0000 H       1  UNL1        0.0624
     18 H           4.8890    2.4330    0.0000 H       1  UNL1        0.0238
     19 H           4.2690    3.0530    0.0000 H       1  UNL1        0.0238
     20 H           3.6490    2.4330    0.0000 H       1  UNL1        0.0238
     21 H           5.2690    0.8130    0.0000 H       1  UNL1        0.0238
     22 H           5.8890    1.4330    0.0000 H       1  UNL1        0.0238
     23 H           5.2690    2.0530    0.0000 H       1  UNL1        0.0238
     24 H           3.2690    2.0530    0.0000 H       1  UNL1        0.0238
     25 H           2.6490    1.4330    0.0000 H       1  UNL1        0.0238
     26 H           3.2690    0.8130    0.0000 H       1  UNL1        0.0238
     27 H           4.2690   -2.1870    0.0000 H       1  UNL1        0.0624
     28 H           6.5571   -2.6039    0.0000 H       1  UNL1        0.0238
     29 H           7.4040   -2.3770    0.0000 H       1  UNL1        0.0238
     30 H           7.1771   -1.5300    0.0000 H       1  UNL1        0.0238
     31 H           4.9641   -2.1230    0.0000 H       1  UNL1        0.0238
     32 H           5.1910   -2.9700    0.0000 H       1  UNL1        0.0238
     33 H           6.0380   -2.7430    0.0000 H       1  UNL1        0.0238
     34 H           7.0380   -1.0110    0.0000 H       1  UNL1        0.0238
     35 H           6.8110   -0.1640    0.0000 H       1  UNL1        0.0238
     36 H           5.9641   -0.3910    0.0000 H       1  UNL1        0.0238
     37 H           2.2269   -1.0300    0.0000 H       1  UNL1        0.0279
     38 H           2.0000   -1.8770    0.0000 H       1  UNL1        0.0279
     39 H           2.8469   -2.1039    0.0000 H       1  UNL1        0.0279
     40 H           2.0000    0.1230    0.0000 H       1  UNL1        0.2922
@<TRIPOS>BOND
     1     1     7    1
     2     1    40    1
     3     2     4    1
     4     2     8    1
     5     2     9    1
     6     2    10    1
     7     3     5    1
     8     3    12    1
     9     3    13    1
    10     3    14    1
    11     4     6   ar
    12     4     7   ar
    13     5     6   ar
    14     5    11   ar
    15     6    17    1
    16     7    15   ar
    17     8    18    1
    18     8    19    1
    19     8    20    1
    20     9    21    1
    21     9    22    1
    22     9    23    1
    23    10    24    1
    24    10    25    1
    25    10    26    1
    26    11    15   ar
    27    11    27    1
    28    12    28    1
    29    12    29    1
    30    12    30    1
    31    13    31    1
    32    13    32    1
    33    13    33    1
    34    14    34    1
    35    14    35    1
    36    14    36    1
    37    15    16    1
    38    16    37    1
    39    16    38    1
    40    16    39    1
