@<TRIPOS>MOLECULE
IMPHY003712
 232 249 0 0 0
SMALL
GASTEIGER

@<TRIPOS>ATOM
      1 S          12.2092    0.1545    0.0000 S.3     1  UNL1       -0.0915
      2 S          11.2582   -0.1545    0.0000 S.3     1  UNL1       -0.0915
      3 O          15.3897   -1.5438    0.0000 O.3     1  UNL1       -0.3754
      4 O           8.0777    1.5438    0.0000 O.3     1  UNL1       -0.3754
      5 O           6.8102   -0.4108    0.0000 O.3     1  UNL1       -0.3875
      6 O          16.6572    0.4108    0.0000 O.3     1  UNL1       -0.3875
      7 O           7.6619   -0.4124    0.0000 O.2     1  UNL1       -0.2725
      8 O          15.8056    0.4124    0.0000 O.2     1  UNL1       -0.2725
      9 O          15.2873   -6.0341    0.0000 O.3     1  UNL1       -0.4947
     10 O           8.1801    6.0341    0.0000 O.3     1  UNL1       -0.4947
     11 O          16.3666   -4.9071    0.0000 O.3     1  UNL1       -0.4670
     12 O           7.1008    4.9071    0.0000 O.3     1  UNL1       -0.4670
     13 O           5.3698    4.9675    0.0000 O.2     1  UNL1       -0.2494
     14 O          18.0976   -4.9675    0.0000 O.2     1  UNL1       -0.2494
     15 O           9.1930    9.9813    0.0000 O.3     1  UNL1       -0.3873
     16 O          14.2744   -9.9813    0.0000 O.3     1  UNL1       -0.3873
     17 N           4.3838    1.8178    0.0000 N.3     1  UNL1       -0.2940
     18 N          19.0837   -1.8178    0.0000 N.3     1  UNL1       -0.2940
     19 N          16.0042   -2.8184    0.0000 N.pl3   1  UNL1       -0.3253
     20 N           7.4632    2.8184    0.0000 N.pl3   1  UNL1       -0.3253
     21 N           8.8208    0.8747    0.0000 N.am    1  UNL1       -0.3120
     22 N          14.6466   -0.8747    0.0000 N.am    1  UNL1       -0.3120
     23 N          18.7993   -6.0977    0.0000 N.ar    1  UNL1       -0.3565
     24 N           4.6681    6.0977    0.0000 N.ar    1  UNL1       -0.3565
     25 N           6.8864    9.2528    0.0000 N.3     1  UNL1       -0.2990
     26 N          16.5811   -9.2528    0.0000 N.3     1  UNL1       -0.2990
     27 C          17.5439   -2.3181    0.0000 C.3     1  UNL1        0.0367
     28 C           5.9235    2.3181    0.0000 C.3     1  UNL1        0.0367
     29 C           5.2980    1.6235    0.0000 C.3     1  UNL1        0.0337
     30 C          18.1694   -1.6235    0.0000 C.3     1  UNL1        0.0337
     31 C          16.6296   -2.1238    0.0000 C.3     1  UNL1        0.0741
     32 C           6.8378    2.1238    0.0000 C.3     1  UNL1        0.0741
     33 C           5.5869    0.7345    0.0000 C.3     1  UNL1        0.0341
     34 C          17.8805   -0.7345    0.0000 C.3     1  UNL1        0.0341
     35 C           7.1266    1.2348    0.0000 C.3     1  UNL1        0.1873
     36 C          16.3408   -1.2348    0.0000 C.3     1  UNL1        0.1873
     37 C           5.5384    3.3538    0.0000 C.3     1  UNL1       -0.0272
     38 C          17.9290   -3.3538    0.0000 C.3     1  UNL1       -0.0272
     39 C          16.9662   -0.5402    0.0000 C.3     1  UNL1        0.1047
     40 C           6.5012    0.5402    0.0000 C.3     1  UNL1        0.1047
     41 C           6.2601    3.9017    0.0000 C.ar    1  UNL1       -0.0162
     42 C          17.2073   -3.9017    0.0000 C.ar    1  UNL1       -0.0162
     43 C           4.0949    2.7068    0.0000 C.3     1  UNL1        0.0005
     44 C          19.3725   -2.7068    0.0000 C.3     1  UNL1        0.0005
     45 C           5.8959   -0.2165    0.0000 C.3     1  UNL1       -0.0428
     46 C          17.5715    0.2165    0.0000 C.3     1  UNL1       -0.0428
     47 C           7.1744    3.7074    0.0000 C.ar    1  UNL1        0.0372
     48 C          16.2930   -3.7074    0.0000 C.ar    1  UNL1        0.0372
     49 C           4.9614    0.0399    0.0000 C.2     1  UNL1       -0.0765
     50 C          18.5060   -0.0399    0.0000 C.2     1  UNL1       -0.0765
     51 C          19.7091   -1.1232    0.0000 C.3     1  UNL1        0.0175
     52 C           3.7583    1.1232    0.0000 C.3     1  UNL1        0.0175
     53 C          15.5976   -0.5657    0.0000 C.2     1  UNL1        0.2493
     54 C           7.8698    0.5657    0.0000 C.2     1  UNL1        0.2493
     55 C           4.0472    0.2343    0.0000 C.2     1  UNL1       -0.0733
     56 C          19.4203   -0.2343    0.0000 C.2     1  UNL1       -0.0733
     57 C          17.4962   -4.7907    0.0000 C.ar    1  UNL1       -0.0481
     58 C           5.9713    4.7907    0.0000 C.ar    1  UNL1       -0.0481
     59 C          15.0531   -3.1274    0.0000 C.3     1  UNL1        0.0011
     60 C           8.4143    3.1274    0.0000 C.3     1  UNL1        0.0011
     61 C           7.7998    4.4020    0.0000 C.ar    1  UNL1        0.0017
     62 C          15.6676   -4.4020    0.0000 C.ar    1  UNL1        0.0017
     63 C          18.2406    0.9597    0.0000 C.3     1  UNL1       -0.0644
     64 C           5.2268   -0.9597    0.0000 C.3     1  UNL1       -0.0644
     65 C           6.5967    5.4853    0.0000 C.ar    1  UNL1        0.0172
     66 C          16.8707   -5.4853    0.0000 C.ar    1  UNL1        0.0172
     67 C          15.9564   -5.2910    0.0000 C.ar    1  UNL1        0.1265
     68 C           7.5110    5.2910    0.0000 C.ar    1  UNL1        0.1265
     69 C          17.1797   -6.4364    0.0000 C.3     1  UNL1        0.1360
     70 C           6.2877    6.4364    0.0000 C.3     1  UNL1        0.1360
     71 C          16.2287   -6.7454    0.0000 C.3     1  UNL1       -0.0234
     72 C           7.2388    6.7454    0.0000 C.3     1  UNL1       -0.0234
     73 C           9.5640    0.2056    0.0000 C.3     1  UNL1        0.0215
     74 C          13.9034   -0.2056    0.0000 C.3     1  UNL1        0.0215
     75 C          18.1069   -6.8110    0.0000 C.ar    1  UNL1        0.0418
     76 C           5.3605    6.8110    0.0000 C.ar    1  UNL1        0.0418
     77 C          15.6987   -7.5934    0.0000 C.3     1  UNL1       -0.0239
     78 C           7.7687    7.5934    0.0000 C.3     1  UNL1       -0.0239
     79 C          17.2146   -5.4370    0.0000 C.2     1  UNL1        0.3235
     80 C           6.2528    5.4370    0.0000 C.2     1  UNL1        0.3235
     81 C           4.8910    7.6940    0.0000 C.ar    1  UNL1       -0.0165
     82 C          18.5764   -7.6940    0.0000 C.ar    1  UNL1       -0.0165
     83 C          10.5150    0.5146    0.0000 C.3     1  UNL1        0.0195
     84 C          12.9524   -0.5146    0.0000 C.3     1  UNL1        0.0195
     85 C           8.6440    8.1147    0.0000 C.3     1  UNL1       -0.0188
     86 C          14.8235   -8.1147    0.0000 C.3     1  UNL1       -0.0188
     87 C           7.6295    8.5837    0.0000 C.3     1  UNL1        0.0020
     88 C          15.8379   -8.5837    0.0000 C.3     1  UNL1        0.0020
     89 C          14.8043   -9.1333    0.0000 C.3     1  UNL1        0.0788
     90 C           8.6631    9.1333    0.0000 C.3     1  UNL1        0.0788
     91 C          14.3091   -5.8262    0.0000 C.3     1  UNL1        0.0788
     92 C           9.1583    5.8262    0.0000 C.3     1  UNL1        0.0788
     93 C          18.3685   -8.6721    0.0000 C.3     1  UNL1       -0.0126
     94 C           5.0990    8.6721    0.0000 C.3     1  UNL1       -0.0126
     95 C           7.8080    9.6870    0.0000 C.3     1  UNL1        0.0278
     96 C          15.6595   -9.6870    0.0000 C.3     1  UNL1        0.0278
     97 C           3.9125    7.5188    0.0000 C.ar    1  UNL1        0.0032
     98 C          19.5549   -7.5188    0.0000 C.ar    1  UNL1        0.0032
     99 C           5.8870    9.2878    0.0000 C.3     1  UNL1        0.0031
    100 C          17.5805   -9.2878    0.0000 C.3     1  UNL1        0.0031
    101 C           3.7750    6.5343    0.0000 C.ar    1  UNL1        0.0470
    102 C          19.6924   -6.5343    0.0000 C.ar    1  UNL1        0.0470
    103 C           9.6625    9.0984    0.0000 C.3     1  UNL1       -0.0256
    104 C          13.8050   -9.0984    0.0000 C.3     1  UNL1       -0.0256
    105 C           3.1059    8.1681    0.0000 C.ar    1  UNL1       -0.0523
    106 C          20.3615   -8.1681    0.0000 C.ar    1  UNL1       -0.0523
    107 C           2.8214    6.1308    0.0000 C.ar    1  UNL1       -0.0378
    108 C          20.6460   -6.1308    0.0000 C.ar    1  UNL1       -0.0378
    109 C          15.4836   -5.3766    0.0000 C.3     1  UNL1        0.0817
    110 C           7.9838    5.3766    0.0000 C.3     1  UNL1        0.0817
    111 C          13.3355   -8.2154    0.0000 C.3     1  UNL1       -0.0626
    112 C          10.1319    8.2154    0.0000 C.3     1  UNL1       -0.0626
    113 C           2.1432    7.7868    0.0000 C.ar    1  UNL1       -0.0611
    114 C          21.3242   -7.7868    0.0000 C.ar    1  UNL1       -0.0611
    115 C           2.0000    6.7613    0.0000 C.ar    1  UNL1       -0.0598
    116 C          21.4674   -6.7613    0.0000 C.ar    1  UNL1       -0.0598
    117 H          18.5842   -1.1628    0.0000 H       1  UNL1        0.0481
    118 H           4.8832    1.1628    0.0000 H       1  UNL1        0.0481
    119 H          16.0232   -1.9949    0.0000 H       1  UNL1        0.0543
    120 H           7.4442    1.9949    0.0000 H       1  UNL1        0.0543
    121 H           6.1147    3.5824    0.0000 H       1  UNL1        0.0287
    122 H           5.2972    3.9249    0.0000 H       1  UNL1        0.0287
    123 H          17.3527   -3.5824    0.0000 H       1  UNL1        0.0287
    124 H          18.1702   -3.9249    0.0000 H       1  UNL1        0.0287
    125 H          16.3598   -0.4113    0.0000 H       1  UNL1        0.0637
    126 H           7.1076    0.4113    0.0000 H       1  UNL1        0.0637
    127 H          19.6057   -3.2813    0.0000 H       1  UNL1        0.0427
    128 H          19.9549   -2.4943    0.0000 H       1  UNL1        0.0427
    129 H           3.8617    3.2813    0.0000 H       1  UNL1        0.0427
    130 H           3.5125    2.4943    0.0000 H       1  UNL1        0.0427
    131 H           6.2776   -0.7051    0.0000 H       1  UNL1        0.0272
    132 H           6.4433    0.0746    0.0000 H       1  UNL1        0.0272
    133 H          17.1898    0.7051    0.0000 H       1  UNL1        0.0272
    134 H          17.0241   -0.0746    0.0000 H       1  UNL1        0.0272
    135 H           5.1530   -0.5497    0.0000 H       1  UNL1        0.0576
    136 H          18.3144    0.5497    0.0000 H       1  UNL1        0.0576
    137 H          20.0908   -1.6118    0.0000 H       1  UNL1        0.0470
    138 H          20.2565   -0.8322    0.0000 H       1  UNL1        0.0470
    139 H           3.3766    1.6118    0.0000 H       1  UNL1        0.0470
    140 H           3.2109    0.8322    0.0000 H       1  UNL1        0.0470
    141 H          19.8351    0.2265    0.0000 H       1  UNL1        0.0582
    142 H           3.6323   -0.2265    0.0000 H       1  UNL1        0.0582
    143 H           5.3648    4.9196    0.0000 H       1  UNL1        0.0625
    144 H          18.1026   -4.9196    0.0000 H       1  UNL1        0.0625
    145 H           8.2066    2.1503    0.0000 H       1  UNL1        0.2110
    146 H          15.2608   -2.1503    0.0000 H       1  UNL1        0.2110
    147 H          14.8615   -2.5378    0.0000 H       1  UNL1        0.0428
    148 H          14.4635   -3.3190    0.0000 H       1  UNL1        0.0428
    149 H          15.2447   -3.7171    0.0000 H       1  UNL1        0.0428
    150 H           8.6059    2.5378    0.0000 H       1  UNL1        0.0428
    151 H           9.0039    3.3190    0.0000 H       1  UNL1        0.0428
    152 H           8.2227    3.7171    0.0000 H       1  UNL1        0.0428
    153 H           6.3954   -0.8716    0.0000 H       1  UNL1        0.2100
    154 H          17.0721    0.8716    0.0000 H       1  UNL1        0.2100
    155 H           8.4063    4.2731    0.0000 H       1  UNL1        0.0673
    156 H          15.0611   -4.2731    0.0000 H       1  UNL1        0.0673
    157 H          18.7014    0.5448    0.0000 H       1  UNL1        0.0230
    158 H          18.6555    1.4204    0.0000 H       1  UNL1        0.0230
    159 H          17.7799    1.3745    0.0000 H       1  UNL1        0.0230
    160 H           4.7660   -0.5448    0.0000 H       1  UNL1        0.0230
    161 H           4.8119   -1.4204    0.0000 H       1  UNL1        0.0230
    162 H           5.6875   -1.3745    0.0000 H       1  UNL1        0.0230
    163 H           8.9497    1.4812    0.0000 H       1  UNL1        0.1488
    164 H          14.5177   -1.4812    0.0000 H       1  UNL1        0.1488
    165 H           7.2532    6.1256    0.0000 H       1  UNL1        0.0286
    166 H           7.8367    6.5815    0.0000 H       1  UNL1        0.0286
    167 H          16.2142   -6.1256    0.0000 H       1  UNL1        0.0286
    168 H          15.6307   -6.5815    0.0000 H       1  UNL1        0.0286
    169 H           9.0754   -0.1761    0.0000 H       1  UNL1        0.0470
    170 H           9.8550   -0.3418    0.0000 H       1  UNL1        0.0470
    171 H          14.3920    0.1761    0.0000 H       1  UNL1        0.0470
    172 H          13.6124    0.3418    0.0000 H       1  UNL1        0.0470
    173 H          15.2651   -7.1504    0.0000 H       1  UNL1        0.0314
    174 H           8.2024    7.1504    0.0000 H       1  UNL1        0.0314
    175 H          11.0036    0.8963    0.0000 H       1  UNL1        0.0400
    176 H          10.2240    1.0620    0.0000 H       1  UNL1        0.0400
    177 H          12.4638   -0.8963    0.0000 H       1  UNL1        0.0400
    178 H          13.2435   -1.0620    0.0000 H       1  UNL1        0.0400
    179 H          14.6098   -7.5327    0.0000 H       1  UNL1        0.0296
    180 H          14.2120   -8.2175    0.0000 H       1  UNL1        0.0296
    181 H           8.8576    7.5327    0.0000 H       1  UNL1        0.0296
    182 H           9.2554    8.2175    0.0000 H       1  UNL1        0.0296
    183 H          15.2250   -8.4903    0.0000 H       1  UNL1        0.0429
    184 H          15.5726   -9.1441    0.0000 H       1  UNL1        0.0429
    185 H           8.2424    8.4903    0.0000 H       1  UNL1        0.0429
    186 H           7.8948    9.1441    0.0000 H       1  UNL1        0.0429
    187 H           4.7747    5.4870    0.0000 H       1  UNL1        0.1656
    188 H          18.6927   -5.4870    0.0000 H       1  UNL1        0.1656
    189 H           9.0294    5.2198    0.0000 H       1  UNL1        0.0660
    190 H           9.7647    5.6973    0.0000 H       1  UNL1        0.0660
    191 H           9.2872    6.4327    0.0000 H       1  UNL1        0.0660
    192 H          14.4380   -5.2198    0.0000 H       1  UNL1        0.0660
    193 H          13.7027   -5.6973    0.0000 H       1  UNL1        0.0660
    194 H          14.1802   -6.4327    0.0000 H       1  UNL1        0.0660
    195 H          18.5940   -9.2496    0.0000 H       1  UNL1        0.0326
    196 H          18.9864   -8.6216    0.0000 H       1  UNL1        0.0326
    197 H           4.8734    9.2496    0.0000 H       1  UNL1        0.0326
    198 H           4.4810    8.6216    0.0000 H       1  UNL1        0.0326
    199 H          15.2324  -10.1364    0.0000 H       1  UNL1        0.0455
    200 H          16.0225  -10.1896    0.0000 H       1  UNL1        0.0455
    201 H           8.2351   10.1364    0.0000 H       1  UNL1        0.0455
    202 H           7.4449   10.1896    0.0000 H       1  UNL1        0.0455
    203 H          17.3820   -9.8751    0.0000 H       1  UNL1        0.0430
    204 H          18.0863   -9.6463    0.0000 H       1  UNL1        0.0430
    205 H           6.0854    9.8751    0.0000 H       1  UNL1        0.0430
    206 H           5.3812    9.6463    0.0000 H       1  UNL1        0.0430
    207 H          10.2521    9.2900    0.0000 H       1  UNL1        0.0291
    208 H           9.5762    9.7123    0.0000 H       1  UNL1        0.0291
    209 H          13.2153   -9.2900    0.0000 H       1  UNL1        0.0291
    210 H          13.8912   -9.7123    0.0000 H       1  UNL1        0.0291
    211 H          20.2686   -8.7811    0.0000 H       1  UNL1        0.0624
    212 H           3.1988    8.7811    0.0000 H       1  UNL1        0.0624
    213 H           8.9019   10.5288    0.0000 H       1  UNL1        0.2102
    214 H          14.5655  -10.5288    0.0000 H       1  UNL1        0.2102
    215 H          20.7247   -5.5158    0.0000 H       1  UNL1        0.0638
    216 H           2.7427    5.5158    0.0000 H       1  UNL1        0.0638
    217 H           8.2749    4.8291    0.0000 H       1  UNL1        0.0661
    218 H           8.5312    5.6676    0.0000 H       1  UNL1        0.0661
    219 H           7.6927    5.9240    0.0000 H       1  UNL1        0.0661
    220 H          15.1926   -4.8291    0.0000 H       1  UNL1        0.0661
    221 H          14.9362   -5.6676    0.0000 H       1  UNL1        0.0661
    222 H          15.7747   -5.9240    0.0000 H       1  UNL1        0.0661
    223 H           9.5845    7.9244    0.0000 H       1  UNL1        0.0231
    224 H          13.8829   -7.9244    0.0000 H       1  UNL1        0.0231
    225 H          13.0444   -7.6680    0.0000 H       1  UNL1        0.0231
    226 H          12.7881   -8.5065    0.0000 H       1  UNL1        0.0231
    227 H          10.4230    7.6680    0.0000 H       1  UNL1        0.0231
    228 H          10.6794    8.5065    0.0000 H       1  UNL1        0.0231
    229 H           1.6558    8.1700    0.0000 H       1  UNL1        0.0618
    230 H          21.8116   -8.1700    0.0000 H       1  UNL1        0.0618
    231 H          22.0412   -6.5263    0.0000 H       1  UNL1        0.0618
    232 H           1.4262    6.5263    0.0000 H       1  UNL1        0.0618
@<TRIPOS>BOND
     1     1     2    1
     2     1    84    1
     3     2    83    1
     4     3    36    1
     5     3   146    1
     6     4    35    1
     7     4   145    1
     8     5    40    1
     9     5   153    1
    10     6    39    1
    11     6   154    1
    12     7    54    2
    13     8    53    2
    14     9    67    1
    15     9    91    1
    16    10    68    1
    17    10    92    1
    18    11    79    1
    19    11   109    1
    20    12    80    1
    21    12   110    1
    22    13    80    2
    23    14    79    2
    24    15    90    1
    25    15   213    1
    26    16    89    1
    27    16   214    1
    28    17    29    1
    29    17    43    1
    30    17    52    1
    31    18    30    1
    32    18    44    1
    33    18    51    1
    34    19    31    1
    35    19    48    1
    36    19    59    1
    37    20    32    1
    38    20    47    1
    39    20    60    1
    40    21    54   am
    41    21    73    1
    42    21   163    1
    43    22    53   am
    44    22    74    1
    45    22   164    1
    46    23    75   ar
    47    23   102   ar
    48    23   188    1
    49    24    76   ar
    50    24   101   ar
    51    24   187    1
    52    25    87    1
    53    25    95    1
    54    25    99    1
    55    26    88    1
    56    26    96    1
    57    26   100    1
    58    27    30    1
    59    27    31    1
    60    27    38    1
    61    27    42    1
    62    28    29    1
    63    28    32    1
    64    28    37    1
    65    28    41    1
    66    29    33    1
    67    29   118    1
    68    30    34    1
    69    30   117    1
    70    31    36    1
    71    31   119    1
    72    32    35    1
    73    32   120    1
    74    33    40    1
    75    33    45    1
    76    33    49    1
    77    34    39    1
    78    34    46    1
    79    34    50    1
    80    35    40    1
    81    35    54    1
    82    36    39    1
    83    36    53    1
    84    37    43    1
    85    37   121    1
    86    37   122    1
    87    38    44    1
    88    38   123    1
    89    38   124    1
    90    39   125    1
    91    40   126    1
    92    41    47   ar
    93    41    58   ar
    94    42    48   ar
    95    42    57   ar
    96    43   129    1
    97    43   130    1
    98    44   127    1
    99    44   128    1
   100    45    64    1
   101    45   131    1
   102    45   132    1
   103    46    63    1
   104    46   133    1
   105    46   134    1
   106    47    61   ar
   107    48    62   ar
   108    49    55    2
   109    49   135    1
   110    50    56    2
   111    50   136    1
   112    51    56    1
   113    51   137    1
   114    51   138    1
   115    52    55    1
   116    52   139    1
   117    52   140    1
   118    55   142    1
   119    56   141    1
   120    57    66   ar
   121    57   144    1
   122    58    65   ar
   123    58   143    1
   124    59   147    1
   125    59   148    1
   126    59   149    1
   127    60   150    1
   128    60   151    1
   129    60   152    1
   130    61    68   ar
   131    61   155    1
   132    62    67   ar
   133    62   156    1
   134    63   157    1
   135    63   158    1
   136    63   159    1
   137    64   160    1
   138    64   161    1
   139    64   162    1
   140    65    68   ar
   141    65    70    1
   142    66    67   ar
   143    66    69    1
   144    69    71    1
   145    69    75    1
   146    69    79    1
   147    70    72    1
   148    70    76    1
   149    70    80    1
   150    71    77    1
   151    71   167    1
   152    71   168    1
   153    72    78    1
   154    72   165    1
   155    72   166    1
   156    73    83    1
   157    73   169    1
   158    73   170    1
   159    74    84    1
   160    74   171    1
   161    74   172    1
   162    75    82   ar
   163    76    81   ar
   164    77    86    1
   165    77    88    1
   166    77   173    1
   167    78    85    1
   168    78    87    1
   169    78   174    1
   170    81    94    1
   171    81    97   ar
   172    82    93    1
   173    82    98   ar
   174    83   175    1
   175    83   176    1
   176    84   177    1
   177    84   178    1
   178    85    90    1
   179    85   181    1
   180    85   182    1
   181    86    89    1
   182    86   179    1
   183    86   180    1
   184    87   185    1
   185    87   186    1
   186    88   183    1
   187    88   184    1
   188    89    96    1
   189    89   104    1
   190    90    95    1
   191    90   103    1
   192    91   192    1
   193    91   193    1
   194    91   194    1
   195    92   189    1
   196    92   190    1
   197    92   191    1
   198    93   100    1
   199    93   195    1
   200    93   196    1
   201    94    99    1
   202    94   197    1
   203    94   198    1
   204    95   201    1
   205    95   202    1
   206    96   199    1
   207    96   200    1
   208    97   101   ar
   209    97   105   ar
   210    98   102   ar
   211    98   106   ar
   212    99   205    1
   213    99   206    1
   214   100   203    1
   215   100   204    1
   216   101   107   ar
   217   102   108   ar
   218   103   112    1
   219   103   207    1
   220   103   208    1
   221   104   111    1
   222   104   209    1
   223   104   210    1
   224   105   113   ar
   225   105   212    1
   226   106   114   ar
   227   106   211    1
   228   107   115   ar
   229   107   216    1
   230   108   116   ar
   231   108   215    1
   232   109   220    1
   233   109   221    1
   234   109   222    1
   235   110   217    1
   236   110   218    1
   237   110   219    1
   238   111   224    1
   239   111   225    1
   240   111   226    1
   241   112   223    1
   242   112   227    1
   243   112   228    1
   244   113   115   ar
   245   113   229    1
   246   114   116   ar
   247   114   230    1
   248   115   232    1
   249   116   231    1
