@<TRIPOS>MOLECULE
IMPHY009187
 41 43 0 0 0
SMALL
GASTEIGER

@<TRIPOS>ATOM
      1 O           7.8282   -1.2847    0.0000 O.3     1  UNL1       -0.4344
      2 O           9.5984    0.7742    0.0000 O.3     1  UNL1       -0.3875
      3 O           6.0682    1.7500    0.0000 O.3     1  UNL1       -0.4937
      4 O           2.5381    0.7742    0.0000 O.3     1  UNL1       -0.5067
      5 N           6.0682   -1.2500    0.0000 N.ar    1  UNL1       -0.1616
      6 C           8.7343   -0.7708    0.0000 C.3     1  UNL1        0.1367
      7 C           8.7343    0.2708    0.0000 C.3     1  UNL1        0.0988
      8 C           7.8282    0.7847    0.0000 C.3     1  UNL1        0.0153
      9 C           6.9343    0.2500    0.0000 C.ar    1  UNL1        0.1085
     10 C           6.9343   -0.7500    0.0000 C.ar    1  UNL1        0.3791
     11 C           9.7343   -0.7747    0.0000 C.3     1  UNL1       -0.0225
     12 C           9.2309   -1.6388    0.0000 C.3     1  UNL1       -0.0225
     13 C           6.0682    0.7500    0.0000 C.ar    1  UNL1        0.1465
     14 C           5.2022   -0.7500    0.0000 C.ar    1  UNL1        0.2214
     15 C           5.2022    0.2500    0.0000 C.ar    1  UNL1        0.0919
     16 C           6.0682   -2.2500    0.0000 C.3     1  UNL1        0.1446
     17 C           4.3083    0.7847    0.0000 C.ar    1  UNL1       -0.0032
     18 C           4.3083   -1.2847    0.0000 C.ar    1  UNL1        0.0140
     19 C           3.4022    0.2708    0.0000 C.ar    1  UNL1        0.1180
     20 C           3.4022   -0.7708    0.0000 C.ar    1  UNL1       -0.0139
     21 C           5.2022    2.2500    0.0000 C.3     1  UNL1        0.0788
     22 H           9.2718   -0.0381    0.0000 H       1  UNL1        0.0636
     23 H           8.2218    1.2637    0.0000 H       1  UNL1        0.0344
     24 H           7.4236    1.2544    0.0000 H       1  UNL1        0.0344
     25 H           8.6928   -1.9467    0.0000 H       1  UNL1        0.0269
     26 H           9.7319   -1.3947    0.0000 H       1  UNL1        0.0269
     27 H          10.3543   -0.7771    0.0000 H       1  UNL1        0.0269
     28 H           9.7367   -0.1547    0.0000 H       1  UNL1        0.0269
     29 H           9.5389   -2.1769    0.0000 H       1  UNL1        0.0269
     30 H           9.7691   -1.3308    0.0000 H       1  UNL1        0.0269
     31 H           9.5960    1.3942    0.0000 H       1  UNL1        0.2100
     32 H           5.4482   -2.2500    0.0000 H       1  UNL1        0.0994
     33 H           6.0682   -2.8700    0.0000 H       1  UNL1        0.0994
     34 H           6.6882   -2.2500    0.0000 H       1  UNL1        0.0994
     35 H           4.3154    1.4046    0.0000 H       1  UNL1        0.0663
     36 H           4.3154   -1.9046    0.0000 H       1  UNL1        0.0685
     37 H           2.8665   -1.0829    0.0000 H       1  UNL1        0.0656
     38 H           5.5122    2.7869    0.0000 H       1  UNL1        0.0660
     39 H           4.6653    2.5600    0.0000 H       1  UNL1        0.0660
     40 H           4.8922    1.7131    0.0000 H       1  UNL1        0.0660
     41 H           2.0000    0.4662    0.0000 H       1  UNL1        0.2921
@<TRIPOS>UNITY_ATOM_ATTR
5 1
charge 1
@<TRIPOS>BOND
     1     1     6    1
     2     1    10    1
     3     2     7    1
     4     2    31    1
     5     3    13    1
     6     3    21    1
     7     4    19    1
     8     4    41    1
     9     5    10   ar
    10     5    14   ar
    11     5    16    1
    12     6     7    1
    13     6    11    1
    14     6    12    1
    15     7     8    1
    16     7    22    1
    17     8     9    1
    18     8    23    1
    19     8    24    1
    20     9    10   ar
    21     9    13   ar
    22    11    26    1
    23    11    27    1
    24    11    28    1
    25    12    25    1
    26    12    29    1
    27    12    30    1
    28    13    15   ar
    29    14    15   ar
    30    14    18   ar
    31    15    17   ar
    32    16    32    1
    33    16    33    1
    34    16    34    1
    35    17    19   ar
    36    17    35    1
    37    18    20   ar
    38    18    36    1
    39    19    20   ar
    40    20    37    1
    41    21    38    1
    42    21    39    1
    43    21    40    1
