@<TRIPOS>MOLECULE
IMPHY014343
 58 60 0 0 0
SMALL
GASTEIGER

@<TRIPOS>ATOM
      1 O           8.0901   -1.8001    0.0000 O.2     1  UNL1       -0.4582
      2 O           6.3301   -2.7654    0.0000 O.3     1  UNL1       -0.4885
      3 O           6.3301    1.2346    0.0000 O.3     1  UNL1       -0.5055
      4 O           4.5981   -1.7654    0.0000 O.3     1  UNL1       -0.5029
      5 O           8.0785    1.2692    0.0000 O.2     1  UNL1       -0.2863
      6 O          10.7321   -1.2379    0.0000 O.3     1  UNL1       -0.4944
      7 O          10.7166    2.7621    0.0000 O.3     1  UNL1       -0.4914
      8 O          12.4525    1.7688    0.0000 O.3     1  UNL1       -0.4913
      9 C           7.1962   -0.2654    0.0000 C.ar    1  UNL1        0.1100
     10 C           5.4641   -0.2654    0.0000 C.ar    1  UNL1        0.0437
     11 C           7.1962   -1.2654    0.0000 C.ar    1  UNL1        0.1870
     12 C           6.3301    0.2346    0.0000 C.ar    1  UNL1        0.1384
     13 C           8.9962   -0.2446    0.0000 C.ar    1  UNL1        0.0680
     14 C           6.3301   -1.7654    0.0000 C.ar    1  UNL1        0.2051
     15 C           8.0901    0.2693    0.0000 C.ar    1  UNL1        0.2039
     16 C           5.4641   -1.2654    0.0000 C.ar    1  UNL1        0.1693
     17 C           4.5981    0.2346    0.0000 C.3     1  UNL1       -0.0022
     18 C           9.8602    0.2587    0.0000 C.ar    1  UNL1        0.0341
     19 C           8.9962   -1.2862    0.0000 C.ar    1  UNL1        0.1041
     20 C          10.7282   -0.2379    0.0000 C.ar    1  UNL1        0.1317
     21 C           3.7320   -0.2654    0.0000 C.2     1  UNL1       -0.0807
     22 C           9.8564    1.2587    0.0000 C.ar    1  UNL1       -0.0049
     23 C          10.7205    1.7621    0.0000 C.ar    1  UNL1        0.1623
     24 C          11.5923    0.2654    0.0000 C.ar    1  UNL1        0.0260
     25 C           2.8660    0.2346    0.0000 C.2     1  UNL1       -0.0793
     26 C          11.5884    1.2654    0.0000 C.ar    1  UNL1        0.1650
     27 C           2.0000   -0.2654    0.0000 C.3     1  UNL1       -0.0440
     28 C           2.8660    1.2346    0.0000 C.3     1  UNL1       -0.0440
     29 C           5.4641   -3.2654    0.0000 C.3     1  UNL1        0.0791
     30 C          11.6000   -1.7346    0.0000 C.3     1  UNL1        0.0788
     31 C          11.5807    3.2654    0.0000 C.3     1  UNL1        0.0790
     32 C          13.3205    1.2721    0.0000 C.3     1  UNL1        0.0790
     33 H           4.9966    0.7095    0.0000 H       1  UNL1        0.0358
     34 H           4.1996    0.7095    0.0000 H       1  UNL1        0.0358
     35 H           9.5319   -1.5983    0.0000 H       1  UNL1        0.1037
     36 H           3.7320   -0.8854    0.0000 H       1  UNL1        0.0575
     37 H           9.3183    1.5667    0.0000 H       1  UNL1        0.0663
     38 H          12.1304   -0.0425    0.0000 H       1  UNL1        0.0692
     39 H           5.7932    1.5446    0.0000 H       1  UNL1        0.2922
     40 H           4.5981   -2.3854    0.0000 H       1  UNL1        0.2923
     41 H           1.6900    0.2715    0.0000 H       1  UNL1        0.0274
     42 H           1.4631   -0.5754    0.0000 H       1  UNL1        0.0274
     43 H           2.3100   -0.8023    0.0000 H       1  UNL1        0.0274
     44 H           3.4860    1.2346    0.0000 H       1  UNL1        0.0274
     45 H           2.8660    1.8546    0.0000 H       1  UNL1        0.0274
     46 H           2.2460    1.2346    0.0000 H       1  UNL1        0.0274
     47 H           5.1541   -2.7285    0.0000 H       1  UNL1        0.0660
     48 H           4.9272   -3.5754    0.0000 H       1  UNL1        0.0660
     49 H           5.7741   -3.8023    0.0000 H       1  UNL1        0.0660
     50 H          11.2921   -2.2727    0.0000 H       1  UNL1        0.0660
     51 H          12.1381   -2.0425    0.0000 H       1  UNL1        0.0660
     52 H          11.9079   -1.1964    0.0000 H       1  UNL1        0.0660
     53 H          11.8928    2.7297    0.0000 H       1  UNL1        0.0660
     54 H          12.1165    3.5775    0.0000 H       1  UNL1        0.0660
     55 H          11.2687    3.8011    0.0000 H       1  UNL1        0.0660
     56 H          13.0125    0.7340    0.0000 H       1  UNL1        0.0660
     57 H          13.8586    0.9642    0.0000 H       1  UNL1        0.0660
     58 H          13.6284    1.8102    0.0000 H       1  UNL1        0.0660
@<TRIPOS>BOND
     1     1    11   ar
     2     1    19   ar
     3     2    14    1
     4     2    29    1
     5     3    12    1
     6     3    39    1
     7     4    16    1
     8     4    40    1
     9     5    15    2
    10     6    20    1
    11     6    30    1
    12     7    23    1
    13     7    31    1
    14     8    26    1
    15     8    32    1
    16     9    11   ar
    17     9    12   ar
    18     9    15   ar
    19    10    12   ar
    20    10    16   ar
    21    10    17    1
    22    11    14   ar
    23    13    15   ar
    24    13    18    1
    25    13    19   ar
    26    14    16   ar
    27    17    21    1
    28    17    33    1
    29    17    34    1
    30    18    20   ar
    31    18    22   ar
    32    19    35    1
    33    20    24   ar
    34    21    25    2
    35    21    36    1
    36    22    23   ar
    37    22    37    1
    38    23    26   ar
    39    24    26   ar
    40    24    38    1
    41    25    27    1
    42    25    28    1
    43    27    41    1
    44    27    42    1
    45    27    43    1
    46    28    44    1
    47    28    45    1
    48    28    46    1
    49    29    47    1
    50    29    48    1
    51    29    49    1
    52    30    50    1
    53    30    51    1
    54    30    52    1
    55    31    53    1
    56    31    54    1
    57    31    55    1
    58    32    56    1
    59    32    57    1
    60    32    58    1
