@<TRIPOS>MOLECULE
IMPHY003036
 53 55 0 0 0
SMALL
GASTEIGER

@<TRIPOS>ATOM
      1 O           5.1350   -2.7500    0.0000 O.3     1  UNL1       -0.3313
      2 O           3.4030   -4.7500    0.0000 O.3     1  UNL1       -0.3865
      3 O           5.1350   -5.7500    0.0000 O.3     1  UNL1       -0.3864
      4 O           6.8671   -2.7500    0.0000 O.3     1  UNL1       -0.4572
      5 O           6.8671   -4.7500    0.0000 O.3     1  UNL1       -0.3829
      6 O           2.5369   -3.2500    0.0000 O.3     1  UNL1       -0.3924
      7 O           8.5991   -1.7500    0.0000 O.3     1  UNL1       -0.5033
      8 O           3.4030    1.2500    0.0000 O.2     1  UNL1       -0.2872
      9 O           6.0010    2.7500    0.0000 O.3     1  UNL1       -0.5059
     10 O           4.2690    5.7500    0.0000 O.3     1  UNL1       -0.5066
     11 C           4.2690   -4.2500    0.0000 C.3     1  UNL1        0.1120
     12 C           5.1350   -4.7500    0.0000 C.3     1  UNL1        0.1152
     13 C           4.2690   -3.2500    0.0000 C.3     1  UNL1        0.1140
     14 C           6.0010   -4.2500    0.0000 C.3     1  UNL1        0.1454
     15 C           6.0010   -3.2500    0.0000 C.3     1  UNL1        0.2310
     16 C           3.4030   -2.7500    0.0000 C.3     1  UNL1        0.0731
     17 C           6.8671   -1.7500    0.0000 C.ar    1  UNL1        0.1657
     18 C           6.0010   -1.2500    0.0000 C.ar    1  UNL1       -0.0090
     19 C           7.7331   -1.2500    0.0000 C.ar    1  UNL1        0.1586
     20 C           6.0010   -0.2500    0.0000 C.ar    1  UNL1       -0.0212
     21 C           7.7331   -0.2500    0.0000 C.ar    1  UNL1       -0.0160
     22 C           6.8671    0.2500    0.0000 C.ar    1  UNL1       -0.0509
     23 C           5.1350    0.2500    0.0000 C.2     1  UNL1       -0.0508
     24 C           5.1350    1.2500    0.0000 C.2     1  UNL1       -0.0137
     25 C           4.2690    1.7500    0.0000 C.2     1  UNL1        0.1896
     26 C           4.2690    2.7500    0.0000 C.ar    1  UNL1        0.0632
     27 C           5.1350    3.2500    0.0000 C.ar    1  UNL1        0.1311
     28 C           3.4030    3.2500    0.0000 C.ar    1  UNL1       -0.0440
     29 C           5.1350    4.2500    0.0000 C.ar    1  UNL1        0.0220
     30 C           3.4030    4.2500    0.0000 C.ar    1  UNL1       -0.0193
     31 C           4.2690    4.7500    0.0000 C.ar    1  UNL1        0.1204
     32 H           4.2690   -4.8700    0.0000 H       1  UNL1        0.0647
     33 H           5.6720   -5.0600    0.0000 H       1  UNL1        0.0648
     34 H           4.2690   -2.6300    0.0000 H       1  UNL1        0.0647
     35 H           6.5380   -3.9400    0.0000 H       1  UNL1        0.0683
     36 H           6.0010   -2.6300    0.0000 H       1  UNL1        0.1084
     37 H           3.8015   -2.2750    0.0000 H       1  UNL1        0.0584
     38 H           3.0044   -2.2750    0.0000 H       1  UNL1        0.0584
     39 H           4.5981   -6.0600    0.0000 H       1  UNL1        0.2100
     40 H           3.4030   -5.3700    0.0000 H       1  UNL1        0.2100
     41 H           6.8671   -5.3700    0.0000 H       1  UNL1        0.2102
     42 H           2.0000   -2.9400    0.0000 H       1  UNL1        0.2095
     43 H           5.4641   -1.5600    0.0000 H       1  UNL1        0.0661
     44 H           8.2700    0.0600    0.0000 H       1  UNL1        0.0655
     45 H           6.8671    0.8700    0.0000 H       1  UNL1        0.0625
     46 H           4.5981   -0.0600    0.0000 H       1  UNL1        0.0625
     47 H           9.1360   -1.4400    0.0000 H       1  UNL1        0.2923
     48 H           5.6720    1.5600    0.0000 H       1  UNL1        0.0656
     49 H           2.8660    2.9400    0.0000 H       1  UNL1        0.0627
     50 H           5.6720    4.5600    0.0000 H       1  UNL1        0.0691
     51 H           2.8660    4.5600    0.0000 H       1  UNL1        0.0654
     52 H           6.5380    3.0600    0.0000 H       1  UNL1        0.2922
     53 H           3.7320    6.0600    0.0000 H       1  UNL1        0.2921
@<TRIPOS>BOND
     1     1    13    1
     2     1    15    1
     3    11     2    1
     4     2    40    1
     5    12     3    1
     6     3    39    1
     7    15     4    1
     8     4    17    1
     9    14     5    1
    10     5    41    1
    11     6    16    1
    12     6    42    1
    13     7    19    1
    14     7    47    1
    15     8    25    2
    16     9    27    1
    17     9    52    1
    18    10    31    1
    19    10    53    1
    20    11    12    1
    21    11    13    1
    22    11    32    1
    23    12    14    1
    24    12    33    1
    25    13    16    1
    26    13    34    1
    27    14    15    1
    28    14    35    1
    29    15    36    1
    30    16    37    1
    31    16    38    1
    32    17    18   ar
    33    17    19   ar
    34    18    20   ar
    35    18    43    1
    36    19    21   ar
    37    20    22   ar
    38    20    23    1
    39    21    22   ar
    40    21    44    1
    41    22    45    1
    42    23    24    2
    43    23    46    1
    44    24    25    1
    45    24    48    1
    46    25    26    1
    47    26    27   ar
    48    26    28   ar
    49    27    29   ar
    50    28    30   ar
    51    28    49    1
    52    29    31   ar
    53    29    50    1
    54    30    31   ar
    55    30    51    1
