@<TRIPOS>MOLECULE
IMPHY006605
 80 84 0 0 0
SMALL
GASTEIGER

@<TRIPOS>ATOM
      1 O           7.9174   -2.4940    0.0000 O.3     1  UNL1       -0.3837
      2 O          10.1248    0.4506    0.0000 O.3     1  UNL1       -0.3849
      3 O           8.8172    2.4560    0.0000 O.3     1  UNL1       -0.4582
      4 O           2.5405   -1.4548    0.0000 O.3     1  UNL1       -0.3892
      5 O           6.1733   -4.5633    0.0000 O.2     1  UNL1       -0.2924
      6 O           2.5244   -3.5464    0.0000 O.3     1  UNL1       -0.3892
      7 O           8.4600    4.1509    0.0000 O.2     1  UNL1       -0.2505
      8 C           7.9174   -0.4940    0.0000 C.3     1  UNL1        0.0061
      9 C           7.9174   -1.4940    0.0000 C.3     1  UNL1        0.0934
     10 C           8.8637   -0.1893    0.0000 C.3     1  UNL1       -0.0005
     11 C           6.1854   -1.4940    0.0000 C.3     1  UNL1       -0.0107
     12 C           5.2754   -2.0009    0.0000 C.3     1  UNL1       -0.0132
     13 C           7.0514    0.0060    0.0000 C.3     1  UNL1       -0.0438
     14 C           7.0514   -1.9940    0.0000 C.2     1  UNL1       -0.0310
     15 C           8.8637   -1.7988    0.0000 C.3     1  UNL1       -0.0192
     16 C           9.4473   -0.9940    0.0000 C.3     1  UNL1       -0.0440
     17 C           6.1854   -0.4940    0.0000 C.3     1  UNL1       -0.0453
     18 C           9.1743    0.7612    0.0000 C.3     1  UNL1        0.1034
     19 C           5.2674   -3.0425    0.0000 C.3     1  UNL1        0.0299
     20 C           7.9174    0.5060    0.0000 C.3     1  UNL1       -0.0563
     21 C           4.3486   -1.4368    0.0000 C.3     1  UNL1       -0.0178
     22 C           7.0675   -3.0356    0.0000 C.2     1  UNL1       -0.0167
     23 C           4.3319   -3.5922    0.0000 C.3     1  UNL1       -0.0141
     24 C           9.4850    1.7117    0.0000 C.3     1  UNL1        0.1318
     25 C           5.2831   -1.0009    0.0000 C.3     1  UNL1       -0.0583
     26 C           6.1694   -3.5633    0.0000 C.2     1  UNL1        0.1598
     27 C           3.4007   -1.9648    0.0000 C.3     1  UNL1        0.0816
     28 C           3.3923   -3.0497    0.0000 C.3     1  UNL1        0.0817
     29 C           8.2238    1.0719    0.0000 C.3     1  UNL1       -0.0323
     30 C          10.4635    1.9180    0.0000 C.3     1  UNL1       -0.0093
     31 C          10.7742    2.8685    0.0000 C.3     1  UNL1       -0.0252
     32 C          10.1063    3.6128    0.0000 C.3     1  UNL1        0.0566
     33 C           9.1278    3.4066    0.0000 C.2     1  UNL1        0.3105
     34 C          11.7527    3.0747    0.0000 C.3     1  UNL1       -0.0522
     35 C          10.4170    4.5633    0.0000 C.3     1  UNL1       -0.0520
     36 C          12.0633    4.0252    0.0000 C.3     1  UNL1       -0.0650
     37 H           9.7034   -0.0574    0.0000 H       1  UNL1        0.0336
     38 H           6.9215   -1.0690    0.0000 H       1  UNL1        0.0352
     39 H           7.4500    0.4809    0.0000 H       1  UNL1        0.0272
     40 H           6.6529    0.4809    0.0000 H       1  UNL1        0.0272
     41 H           8.6126   -2.3657    0.0000 H       1  UNL1        0.0296
     42 H           9.4010   -2.1080    0.0000 H       1  UNL1        0.0296
     43 H           9.9081   -1.4088    0.0000 H       1  UNL1        0.0270
     44 H           9.9081   -0.5793    0.0000 H       1  UNL1        0.0270
     45 H           5.9733    0.0886    0.0000 H       1  UNL1        0.0271
     46 H           5.5748   -0.6017    0.0000 H       1  UNL1        0.0271
     47 H           5.2706   -3.8925    0.0000 H       1  UNL1        0.0387
     48 H           8.5374    0.5060    0.0000 H       1  UNL1        0.0236
     49 H           7.9174    1.1260    0.0000 H       1  UNL1        0.0236
     50 H           7.2974    0.5060    0.0000 H       1  UNL1        0.0236
     51 H           4.7568   -0.9701    0.0000 H       1  UNL1        0.0297
     52 H           3.9586   -0.9548    0.0000 H       1  UNL1        0.0297
     53 H           7.6080   -3.3393    0.0000 H       1  UNL1        0.0653
     54 H           3.9346   -4.0682    0.0000 H       1  UNL1        0.0298
     55 H           4.7329   -4.0651    0.0000 H       1  UNL1        0.0298
     56 H           8.6533    1.5365    0.0000 H       1  UNL1        0.0763
     57 H           5.9031   -1.0057    0.0000 H       1  UNL1        0.0235
     58 H           5.2879   -0.3809    0.0000 H       1  UNL1        0.0235
     59 H           4.6631   -0.9961    0.0000 H       1  UNL1        0.0235
     60 H           8.4544   -2.8040    0.0000 H       1  UNL1        0.2106
     61 H           2.8608   -2.2696    0.0000 H       1  UNL1        0.0619
     62 H           3.3911   -3.6697    0.0000 H       1  UNL1        0.0619
     63 H           8.4164    1.6612    0.0000 H       1  UNL1        0.0259
     64 H           7.6345    1.2645    0.0000 H       1  UNL1        0.0259
     65 H           8.0312    0.4826    0.0000 H       1  UNL1        0.0259
     66 H          10.4841    1.2983    0.0000 H       1  UNL1        0.0305
     67 H          11.0773    1.8306    0.0000 H       1  UNL1        0.0305
     68 H          10.2527   -0.1561    0.0000 H       1  UNL1        0.2103
     69 H          10.9668    3.4578    0.0000 H       1  UNL1        0.0310
     70 H           9.6922    4.0742    0.0000 H       1  UNL1        0.0413
     71 H           2.0000   -1.7585    0.0000 H       1  UNL1        0.2099
     72 H           2.5220   -4.1664    0.0000 H       1  UNL1        0.2099
     73 H          11.7732    2.4550    0.0000 H       1  UNL1        0.0266
     74 H          12.3665    2.9873    0.0000 H       1  UNL1        0.0266
     75 H          11.0063    4.3707    0.0000 H       1  UNL1        0.0238
     76 H          10.6096    5.1526    0.0000 H       1  UNL1        0.0238
     77 H           9.8276    4.7559    0.0000 H       1  UNL1        0.0238
     78 H          12.6526    3.8326    0.0000 H       1  UNL1        0.0230
     79 H          12.2559    4.6145    0.0000 H       1  UNL1        0.0230
     80 H          11.4740    4.2178    0.0000 H       1  UNL1        0.0230
@<TRIPOS>BOND
     1     9     1    1
     2     1    60    1
     3    18     2    1
     4     2    68    1
     5     3    24    1
     6     3    33    1
     7    27     4    1
     8     4    71    1
     9     5    26    2
    10    28     6    1
    11     6    72    1
    12     7    33    2
    13     8     9    1
    14     8    10    1
    15     8    13    1
    16     8    20    1
    17     9    14    1
    18     9    15    1
    19    10    16    1
    20    10    18    1
    21    10    37    1
    22    11    12    1
    23    11    14    1
    24    11    17    1
    25    11    38    1
    26    12    19    1
    27    12    21    1
    28    12    25    1
    29    13    17    1
    30    13    39    1
    31    13    40    1
    32    14    22    2
    33    15    16    1
    34    15    41    1
    35    15    42    1
    36    16    43    1
    37    16    44    1
    38    17    45    1
    39    17    46    1
    40    18    24    1
    41    18    29    1
    42    19    23    1
    43    19    26    1
    44    19    47    1
    45    20    48    1
    46    20    49    1
    47    20    50    1
    48    21    27    1
    49    21    51    1
    50    21    52    1
    51    22    26    1
    52    22    53    1
    53    23    28    1
    54    23    54    1
    55    23    55    1
    56    24    30    1
    57    24    56    1
    58    25    57    1
    59    25    58    1
    60    25    59    1
    61    27    28    1
    62    27    61    1
    63    28    62    1
    64    29    63    1
    65    29    64    1
    66    29    65    1
    67    30    31    1
    68    30    66    1
    69    30    67    1
    70    31    32    1
    71    31    34    1
    72    31    69    1
    73    32    33    1
    74    32    35    1
    75    32    70    1
    76    34    36    1
    77    34    73    1
    78    34    74    1
    79    35    75    1
    80    35    76    1
    81    35    77    1
    82    36    78    1
    83    36    79    1
    84    36    80    1
