@<TRIPOS>MOLECULE
IMPHY001446
 80 83 0 0 0
SMALL
GASTEIGER

@<TRIPOS>ATOM
      1 O           9.9229   -0.6735    0.0000 O.3     1  UNL1       -0.3915
      2 O           2.0000   -3.2258    0.0000 O.2     1  UNL1       -0.2968
      3 C           7.3931   -0.1735    0.0000 C.3     1  UNL1       -0.0175
      4 C           7.3931   -1.1735    0.0000 C.3     1  UNL1       -0.0027
      5 C           5.6610   -1.1735    0.0000 C.3     1  UNL1       -0.0136
      6 C           8.3393    0.1313    0.0000 C.3     1  UNL1       -0.0062
      7 C           4.7510   -1.6803    0.0000 C.3     1  UNL1       -0.0212
      8 C           6.5271   -1.6735    0.0000 C.2     1  UNL1       -0.0633
      9 C           6.5271    0.3265    0.0000 C.3     1  UNL1       -0.0459
     10 C           8.3393   -1.4782    0.0000 C.3     1  UNL1       -0.0169
     11 C           8.9229   -0.6735    0.0000 C.3     1  UNL1        0.0596
     12 C           5.6610   -0.1735    0.0000 C.3     1  UNL1       -0.0455
     13 C           4.7430   -2.7219    0.0000 C.3     1  UNL1       -0.0198
     14 C           8.6500    1.0818    0.0000 C.3     1  UNL1       -0.0379
     15 C           7.3931    0.8265    0.0000 C.3     1  UNL1       -0.0584
     16 C           7.3931   -2.1735    0.0000 C.3     1  UNL1       -0.0552
     17 C           3.8242   -1.1162    0.0000 C.3     1  UNL1       -0.0401
     18 C           3.8076   -3.2716    0.0000 C.3     1  UNL1        0.0270
     19 C           5.6451   -3.2427    0.0000 C.3     1  UNL1       -0.0302
     20 C           6.5431   -2.7150    0.0000 C.2     1  UNL1       -0.0836
     21 C           4.7587   -0.6803    0.0000 C.3     1  UNL1       -0.0587
     22 C           2.8763   -1.6442    0.0000 C.3     1  UNL1        0.0069
     23 C           2.8680   -2.7291    0.0000 C.2     1  UNL1        0.1392
     24 C           9.6285    1.2880    0.0000 C.3     1  UNL1       -0.0467
     25 C           7.9821    1.8261    0.0000 C.3     1  UNL1       -0.0621
     26 C           3.3109   -4.1396    0.0000 C.3     1  UNL1       -0.0528
     27 C           4.3109   -4.1357    0.0000 C.3     1  UNL1       -0.0528
     28 C           9.9391    2.2385    0.0000 C.3     1  UNL1       -0.0343
     29 C          10.9176    2.4448    0.0000 C.2     1  UNL1       -0.0853
     30 C          11.2283    3.3953    0.0000 C.2     1  UNL1       -0.0796
     31 C          12.2068    3.6015    0.0000 C.3     1  UNL1       -0.0440
     32 C          10.5605    4.1396    0.0000 C.3     1  UNL1       -0.0440
     33 H           6.3972   -0.7485    0.0000 H       1  UNL1        0.0351
     34 H           7.7396    0.7336    0.0000 H       1  UNL1        0.0334
     35 H           6.9256    0.8015    0.0000 H       1  UNL1        0.0271
     36 H           6.1285    0.8015    0.0000 H       1  UNL1        0.0271
     37 H           8.0883   -2.0451    0.0000 H       1  UNL1        0.0299
     38 H           8.8767   -1.7874    0.0000 H       1  UNL1        0.0299
     39 H           9.2046   -1.2258    0.0000 H       1  UNL1        0.0596
     40 H           5.4490    0.4092    0.0000 H       1  UNL1        0.0271
     41 H           5.0504   -0.2811    0.0000 H       1  UNL1        0.0271
     42 H           4.7463   -3.5719    0.0000 H       1  UNL1        0.0318
     43 H           8.8426    1.6711    0.0000 H       1  UNL1        0.0302
     44 H           8.0131    0.8265    0.0000 H       1  UNL1        0.0235
     45 H           7.3931    1.4465    0.0000 H       1  UNL1        0.0235
     46 H           6.7731    0.8265    0.0000 H       1  UNL1        0.0235
     47 H           6.7731   -2.1735    0.0000 H       1  UNL1        0.0238
     48 H           7.3931   -2.7935    0.0000 H       1  UNL1        0.0238
     49 H           8.0131   -2.1735    0.0000 H       1  UNL1        0.0238
     50 H           4.2324   -0.6496    0.0000 H       1  UNL1        0.0275
     51 H           3.4343   -0.6342    0.0000 H       1  UNL1        0.0275
     52 H           5.2478   -3.7187    0.0000 H       1  UNL1        0.0311
     53 H           6.0460   -3.7156    0.0000 H       1  UNL1        0.0311
     54 H           7.0836   -3.0187    0.0000 H       1  UNL1        0.0572
     55 H           5.3787   -0.6851    0.0000 H       1  UNL1        0.0235
     56 H           4.7635   -0.0604    0.0000 H       1  UNL1        0.0235
     57 H           4.1388   -0.6756    0.0000 H       1  UNL1        0.0235
     58 H           2.6718   -1.0589    0.0000 H       1  UNL1        0.0342
     59 H           2.2647   -1.7456    0.0000 H       1  UNL1        0.0342
     60 H           9.6490    0.6684    0.0000 H       1  UNL1        0.0271
     61 H          10.2423    1.2007    0.0000 H       1  UNL1        0.0271
     62 H           8.4436    2.2402    0.0000 H       1  UNL1        0.0233
     63 H           7.5681    2.2876    0.0000 H       1  UNL1        0.0233
     64 H           7.5207    1.4120    0.0000 H       1  UNL1        0.0233
     65 H          10.2329   -1.2104    0.0000 H       1  UNL1        0.2098
     66 H           3.7752   -4.4478    0.0000 H       1  UNL1        0.0239
     67 H           4.6230   -4.6715    0.0000 H       1  UNL1        0.0239
     68 H           4.8466   -3.8236    0.0000 H       1  UNL1        0.0239
     69 H           2.7728   -3.8316    0.0000 H       1  UNL1        0.0239
     70 H           3.0030   -4.6777    0.0000 H       1  UNL1        0.0239
     71 H           3.8490   -4.4475    0.0000 H       1  UNL1        0.0239
     72 H           9.9186    2.8582    0.0000 H       1  UNL1        0.0307
     73 H           9.3253    2.3259    0.0000 H       1  UNL1        0.0307
     74 H          11.3317    1.9833    0.0000 H       1  UNL1        0.0571
     75 H          11.0219    4.5536    0.0000 H       1  UNL1        0.0274
     76 H          10.1464    4.6010    0.0000 H       1  UNL1        0.0274
     77 H          10.0990    3.7255    0.0000 H       1  UNL1        0.0274
     78 H          12.3347    2.9948    0.0000 H       1  UNL1        0.0274
     79 H          12.8135    3.7294    0.0000 H       1  UNL1        0.0274
     80 H          12.0790    4.2082    0.0000 H       1  UNL1        0.0274
@<TRIPOS>BOND
     1    11     1    1
     2     1    65    1
     3     2    23    2
     4     3     4    1
     5     3     6    1
     6     3     9    1
     7     3    15    1
     8     4     8    1
     9     4    10    1
    10     4    16    1
    11     5     7    1
    12     5     8    1
    13     5    12    1
    14     5    33    1
    15     6    11    1
    16     6    14    1
    17     6    34    1
    18     7    13    1
    19     7    17    1
    20     7    21    1
    21     8    20    2
    22     9    12    1
    23     9    35    1
    24     9    36    1
    25    10    11    1
    26    10    37    1
    27    10    38    1
    28    11    39    1
    29    12    40    1
    30    12    41    1
    31    13    18    1
    32    13    19    1
    33    13    42    1
    34    14    24    1
    35    14    25    1
    36    14    43    1
    37    15    44    1
    38    15    45    1
    39    15    46    1
    40    16    47    1
    41    16    48    1
    42    16    49    1
    43    17    22    1
    44    17    50    1
    45    17    51    1
    46    18    23    1
    47    18    26    1
    48    18    27    1
    49    19    20    1
    50    19    52    1
    51    19    53    1
    52    20    54    1
    53    21    55    1
    54    21    56    1
    55    21    57    1
    56    22    23    1
    57    22    58    1
    58    22    59    1
    59    24    28    1
    60    24    60    1
    61    24    61    1
    62    25    62    1
    63    25    63    1
    64    25    64    1
    65    26    69    1
    66    26    70    1
    67    26    71    1
    68    27    66    1
    69    27    67    1
    70    27    68    1
    71    28    29    1
    72    28    72    1
    73    28    73    1
    74    29    30    2
    75    29    74    1
    76    30    31    1
    77    30    32    1
    78    31    78    1
    79    31    79    1
    80    31    80    1
    81    32    75    1
    82    32    76    1
    83    32    77    1
