@<TRIPOS>MOLECULE
IMPHY005181
 57 59 0 0 0
SMALL
GASTEIGER

@<TRIPOS>ATOM
      1 O           7.7331   -0.5000    0.0000 O.3     1  UNL1       -0.3405
      2 O           6.0010    0.5000    0.0000 O.3     1  UNL1       -0.3461
      3 O           9.4651   -0.5000    0.0000 O.3     1  UNL1       -0.3411
      4 O           4.2690    0.5000    0.0000 O.3     1  UNL1       -0.3461
      5 O           6.0010   -2.5000    0.0000 O.3     1  UNL1       -0.3865
      6 O           7.7331   -3.5000    0.0000 O.3     1  UNL1       -0.3864
      7 O           9.4651   -2.5000    0.0000 O.3     1  UNL1       -0.3841
      8 O           6.0010    2.5000    0.0000 O.3     1  UNL1       -0.3841
      9 O           4.2690    3.5000    0.0000 O.3     1  UNL1       -0.3864
     10 O           2.5369    2.5000    0.0000 O.3     1  UNL1       -0.3869
     11 C           6.8671   -1.0000    0.0000 C.3     1  UNL1        0.1134
     12 C           6.8671   -2.0000    0.0000 C.3     1  UNL1        0.1119
     13 C           7.7331   -2.5000    0.0000 C.3     1  UNL1        0.1141
     14 C           8.5991   -2.0000    0.0000 C.3     1  UNL1        0.1341
     15 C           8.5991   -1.0000    0.0000 C.3     1  UNL1        0.1886
     16 C           6.0010   -0.5000    0.0000 C.3     1  UNL1        0.0796
     17 C           5.1350    1.0000    0.0000 C.3     1  UNL1        0.1876
     18 C           5.1350    2.0000    0.0000 C.3     1  UNL1        0.1341
     19 C           4.2690    2.5000    0.0000 C.3     1  UNL1        0.1137
     20 C           3.4030    2.0000    0.0000 C.3     1  UNL1        0.1069
     21 C           3.4030    1.0000    0.0000 C.3     1  UNL1        0.0792
     22 C           9.4651    0.5000    0.0000 C.3     1  UNL1        0.0839
     23 C          10.3312    1.0000    0.0000 C.ar    1  UNL1       -0.0191
     24 C           8.5991    1.0000    0.0000 C.3     1  UNL1       -0.0344
     25 C          11.1972    0.5000    0.0000 C.ar    1  UNL1       -0.0561
     26 C          10.3312    2.0000    0.0000 C.ar    1  UNL1       -0.0561
     27 C          12.0632    1.0000    0.0000 C.ar    1  UNL1       -0.0614
     28 C          11.1972    2.5000    0.0000 C.ar    1  UNL1       -0.0614
     29 C          12.0632    2.0000    0.0000 C.ar    1  UNL1       -0.0617
     30 H           6.8671   -0.3800    0.0000 H       1  UNL1        0.0647
     31 H           6.8671   -2.6200    0.0000 H       1  UNL1        0.0647
     32 H           8.2700   -2.8100    0.0000 H       1  UNL1        0.0648
     33 H           9.1360   -1.6900    0.0000 H       1  UNL1        0.0671
     34 H           8.5991   -0.3800    0.0000 H       1  UNL1        0.0938
     35 H           5.3905   -0.3923    0.0000 H       1  UNL1        0.0587
     36 H           5.7890   -1.0826    0.0000 H       1  UNL1        0.0587
     37 H           5.6720    1.3100    0.0000 H       1  UNL1        0.0937
     38 H           5.1350    2.6200    0.0000 H       1  UNL1        0.0671
     39 H           3.7320    2.8100    0.0000 H       1  UNL1        0.0647
     40 H           3.9650    2.6200    0.0000 H       1  UNL1        0.0643
     41 H           2.7924    1.1077    0.0000 H       1  UNL1        0.0587
     42 H           3.1909    0.4174    0.0000 H       1  UNL1        0.0587
     43 H           5.4641   -2.1900    0.0000 H       1  UNL1        0.2100
     44 H           7.1962   -3.8100    0.0000 H       1  UNL1        0.2100
     45 H          10.0021    0.1900    0.0000 H       1  UNL1        0.0644
     46 H          10.0021   -2.1900    0.0000 H       1  UNL1        0.2101
     47 H           6.0010    3.1200    0.0000 H       1  UNL1        0.2101
     48 H           3.7320    3.8100    0.0000 H       1  UNL1        0.2100
     49 H           2.0000    2.1900    0.0000 H       1  UNL1        0.2100
     50 H           8.9091    1.5369    0.0000 H       1  UNL1        0.0258
     51 H           8.0622    1.3100    0.0000 H       1  UNL1        0.0258
     52 H           8.2891    0.4631    0.0000 H       1  UNL1        0.0258
     53 H          11.1972   -0.1200    0.0000 H       1  UNL1        0.0621
     54 H           9.7942    2.3100    0.0000 H       1  UNL1        0.0621
     55 H          12.6002    0.6900    0.0000 H       1  UNL1        0.0618
     56 H          11.1972    3.1200    0.0000 H       1  UNL1        0.0618
     57 H          12.6002    2.3100    0.0000 H       1  UNL1        0.0618
@<TRIPOS>BOND
     1     1    11    1
     2     1    15    1
     3     2    16    1
     4    17     2    1
     5    15     3    1
     6    22     3    1
     7     4    17    1
     8     4    21    1
     9    12     5    1
    10     5    43    1
    11    13     6    1
    12     6    44    1
    13    14     7    1
    14     7    46    1
    15    18     8    1
    16     8    47    1
    17    19     9    1
    18     9    48    1
    19    20    10    1
    20    10    49    1
    21    11    12    1
    22    11    16    1
    23    11    30    1
    24    12    13    1
    25    12    31    1
    26    13    14    1
    27    13    32    1
    28    14    15    1
    29    14    33    1
    30    15    34    1
    31    16    35    1
    32    16    36    1
    33    17    18    1
    34    17    37    1
    35    18    19    1
    36    18    38    1
    37    19    20    1
    38    19    39    1
    39    20    21    1
    40    20    40    1
    41    21    41    1
    42    21    42    1
    43    22    23    1
    44    22    24    1
    45    22    45    1
    46    23    25   ar
    47    23    26   ar
    48    24    50    1
    49    24    51    1
    50    24    52    1
    51    25    27   ar
    52    25    53    1
    53    26    28   ar
    54    26    54    1
    55    27    29   ar
    56    27    55    1
    57    28    29   ar
    58    28    56    1
    59    29    57    1
