@<TRIPOS>MOLECULE
IMPHY003160
 55 60 0 0 0
SMALL
GASTEIGER

@<TRIPOS>ATOM
      1 O           5.3545   -3.4022    0.0000 O.3     1  UNL1       -0.3379
      2 O           3.4844   -4.4055    0.0000 O.3     1  UNL1       -0.3879
      3 O           7.4049   -3.7059    0.0000 O.3     1  UNL1       -0.4646
      4 O           7.5938   -1.9842    0.0000 O.2     1  UNL1       -0.2454
      5 O           4.9080    3.7976    0.0000 O.3     1  UNL1       -0.4950
      6 N           2.8427   -1.8739    0.0000 N.3     1  UNL1       -0.2906
      7 N           4.6929    0.1824    0.0000 N.ar    1  UNL1       -0.3044
      8 C           4.5731   -2.0315    0.0000 C.3     1  UNL1        0.0252
      9 C           3.7910   -1.4429    0.0000 C.3     1  UNL1        0.0595
     10 C           4.4663   -3.0046    0.0000 C.3     1  UNL1        0.0965
     11 C           5.5264   -1.8360    0.0000 C.3     1  UNL1        0.0166
     12 C           6.0083   -2.6814    0.0000 C.3     1  UNL1        0.2466
     13 C           3.8839   -0.4054    0.0000 C.ar    1  UNL1        0.0440
     14 C           3.5752   -3.4096    0.0000 C.3     1  UNL1        0.0946
     15 C           4.7928   -1.0560    0.0000 C.3     1  UNL1       -0.0458
     16 C           2.7719   -2.8502    0.0000 C.3     1  UNL1        0.0281
     17 C           3.0749    0.1824    0.0000 C.ar    1  UNL1       -0.0160
     18 C           2.0000   -1.2616    0.0000 C.3     1  UNL1        0.0037
     19 C           2.1169   -0.2266    0.0000 C.3     1  UNL1       -0.0125
     20 C           4.3839    1.1334    0.0000 C.ar    1  UNL1        0.0560
     21 C           3.3839    1.1334    0.0000 C.ar    1  UNL1        0.0037
     22 C           7.0024   -2.7905    0.0000 C.2     1  UNL1        0.3609
     23 C           5.7475   -0.7584    0.0000 C.3     1  UNL1       -0.0646
     24 C           4.9185    2.0274    0.0000 C.ar    1  UNL1        0.0042
     25 C           2.8492    2.0274    0.0000 C.ar    1  UNL1       -0.0489
     26 C           4.4047    2.9335    0.0000 C.ar    1  UNL1        0.1221
     27 C           3.3631    2.9335    0.0000 C.ar    1  UNL1       -0.0193
     28 C           8.3989   -3.8150    0.0000 C.3     1  UNL1        0.0818
     29 C           4.4114    4.6655    0.0000 C.3     1  UNL1        0.0788
     30 H           4.5677   -1.0977    0.0000 H       1  UNL1        0.0533
     31 H           4.4688   -3.8546    0.0000 H       1  UNL1        0.0629
     32 H           6.0943   -1.5873    0.0000 H       1  UNL1        0.0324
     33 H           5.3387   -1.2451    0.0000 H       1  UNL1        0.0324
     34 H           4.2682   -3.9018    0.0000 H       1  UNL1        0.0632
     35 H           4.7139   -0.4410    0.0000 H       1  UNL1        0.0269
     36 H           4.1734   -1.0269    0.0000 H       1  UNL1        0.0269
     37 H           2.1713   -2.6962    0.0000 H       1  UNL1        0.0453
     38 H           2.5136   -3.4138    0.0000 H       1  UNL1        0.0453
     39 H           1.4049   -1.0876    0.0000 H       1  UNL1        0.0430
     40 H           1.7268   -1.8182    0.0000 H       1  UNL1        0.0430
     41 H           1.9746    0.3769    0.0000 H       1  UNL1        0.0326
     42 H           1.4980   -0.2634    0.0000 H       1  UNL1        0.0326
     43 H           5.9319   -1.3503    0.0000 H       1  UNL1        0.0230
     44 H           6.3394   -0.5739    0.0000 H       1  UNL1        0.0230
     45 H           5.5630   -0.1665    0.0000 H       1  UNL1        0.0230
     46 H           2.9216   -4.6655    0.0000 H       1  UNL1        0.2099
     47 H           5.5385    2.0202    0.0000 H       1  UNL1        0.0675
     48 H           2.2293    2.0202    0.0000 H       1  UNL1        0.0625
     49 H           3.0510    3.4692    0.0000 H       1  UNL1        0.0654
     50 H           8.3313   -4.4313    0.0000 H       1  UNL1        0.0661
     51 H           9.0152   -3.8826    0.0000 H       1  UNL1        0.0661
     52 H           8.4666   -3.1987    0.0000 H       1  UNL1        0.0661
     53 H           4.9495    4.9734    0.0000 H       1  UNL1        0.0660
     54 H           4.1034    5.2036    0.0000 H       1  UNL1        0.0660
     55 H           3.8732    4.3576    0.0000 H       1  UNL1        0.0660
@<TRIPOS>BOND
     1     1    10    1
     2     1    12    1
     3     2    14    1
     4     2    46    1
     5     3    22    1
     6     3    28    1
     7     4    22    2
     8     5    26    1
     9     5    29    1
    10     6     9    1
    11     6    16    1
    12     6    18    1
    13     7    12    1
    14     7    13   ar
    15     7    20   ar
    16     8     9    1
    17     8    10    1
    18     8    11    1
    19     8    15    1
    20     9    13    1
    21     9    30    1
    22    10    14    1
    23    10    31    1
    24    11    12    1
    25    11    32    1
    26    11    33    1
    27    12    22    1
    28    13    17   ar
    29    14    16    1
    30    14    34    1
    31    15    23    1
    32    15    35    1
    33    15    36    1
    34    16    37    1
    35    16    38    1
    36    17    19    1
    37    17    21   ar
    38    18    19    1
    39    18    39    1
    40    18    40    1
    41    19    41    1
    42    19    42    1
    43    20    21   ar
    44    20    24   ar
    45    21    25   ar
    46    23    43    1
    47    23    44    1
    48    23    45    1
    49    24    26   ar
    50    24    47    1
    51    25    27   ar
    52    25    48    1
    53    26    27   ar
    54    27    49    1
    55    28    50    1
    56    28    51    1
    57    28    52    1
    58    29    53    1
    59    29    54    1
    60    29    55    1
