@<TRIPOS>MOLECULE
IMPHY017541
 25 24 0 0 0
SMALL
GASTEIGER

@<TRIPOS>ATOM
      1 O           2.5369    1.0950    0.0000 O.2     1  UNL1       -0.4093
      2 N           2.5369    0.0950    0.0000 N.2     1  UNL1       -0.0968
      3 C           5.1350   -0.4050    0.0000 C.3     1  UNL1       -0.0293
      4 C           4.2690    0.0950    0.0000 C.3     1  UNL1       -0.0080
      5 C           6.0010    0.0950    0.0000 C.2     1  UNL1       -0.0849
      6 C           6.8671   -0.4050    0.0000 C.2     1  UNL1       -0.0796
      7 C           3.4030   -0.4050    0.0000 C.2     1  UNL1        0.0547
      8 C           7.7331    0.0950    0.0000 C.3     1  UNL1       -0.0440
      9 C           6.8671   -1.4050    0.0000 C.3     1  UNL1       -0.0440
     10 C           3.4030   -1.4050    0.0000 C.3     1  UNL1       -0.0231
     11 H           4.7365   -0.8799    0.0000 H       1  UNL1        0.0311
     12 H           5.5335   -0.8799    0.0000 H       1  UNL1        0.0311
     13 H           4.6675    0.5699    0.0000 H       1  UNL1        0.0329
     14 H           3.8705    0.5699    0.0000 H       1  UNL1        0.0329
     15 H           6.0010    0.7150    0.0000 H       1  UNL1        0.0572
     16 H           8.0431   -0.4419    0.0000 H       1  UNL1        0.0274
     17 H           8.2700    0.4050    0.0000 H       1  UNL1        0.0274
     18 H           7.4231    0.6319    0.0000 H       1  UNL1        0.0274
     19 H           6.2471   -1.4050    0.0000 H       1  UNL1        0.0274
     20 H           6.8671   -2.0250    0.0000 H       1  UNL1        0.0274
     21 H           7.4871   -1.4050    0.0000 H       1  UNL1        0.0274
     22 H           2.7830   -1.4050    0.0000 H       1  UNL1        0.0290
     23 H           3.4030   -2.0250    0.0000 H       1  UNL1        0.0290
     24 H           4.0230   -1.4050    0.0000 H       1  UNL1        0.0290
     25 H           2.0000    1.4050    0.0000 H       1  UNL1        0.3278
@<TRIPOS>BOND
     1     1     2    1
     2     1    25    1
     3     2     7    2
     4     3     4    1
     5     3     5    1
     6     3    11    1
     7     3    12    1
     8     4     7    1
     9     4    13    1
    10     4    14    1
    11     5     6    2
    12     5    15    1
    13     6     8    1
    14     6     9    1
    15     7    10    1
    16     8    16    1
    17     8    17    1
    18     8    18    1
    19     9    19    1
    20     9    20    1
    21     9    21    1
    22    10    22    1
    23    10    23    1
    24    10    24    1
