@<TRIPOS>MOLECULE
IMPHY011945
 76 81 0 0 0
SMALL
GASTEIGER

@<TRIPOS>ATOM
      1 O           5.5954   -2.1475    0.0000 O.3     1  UNL1       -0.3425
      2 O           3.9300   -1.0663    0.0000 O.3     1  UNL1       -0.3458
      3 O          11.0589   -0.4368    0.0000 O.3     1  UNL1       -0.3915
      4 O           5.4454   -3.2351    0.0000 O.3     1  UNL1       -0.3865
      5 O          12.0027    3.2317    0.0000 O.3     1  UNL1       -0.3918
      6 C           6.6628    0.0874    0.0000 C.3     1  UNL1       -0.0233
      7 C           7.5288   -0.4126    0.0000 C.3     1  UNL1       -0.0298
      8 C           8.3948    0.0874    0.0000 C.3     1  UNL1       -0.0319
      9 C           5.9258   -0.5797    0.0000 C.3     1  UNL1       -0.0014
     10 C           8.3948    1.0874    0.0000 C.3     1  UNL1       -0.0321
     11 C           6.3309   -1.4875    0.0000 C.3     1  UNL1        0.0661
     12 C           9.2888    1.6220    0.0000 C.3     1  UNL1       -0.0236
     13 C           7.3196   -1.3845    0.0000 C.3     1  UNL1       -0.0226
     14 C           6.6628    1.0874    0.0000 C.3     1  UNL1       -0.0467
     15 C           7.5288    1.5874    0.0000 C.3     1  UNL1       -0.0489
     16 C           4.9434   -0.6864    0.0000 C.3     1  UNL1        0.0186
     17 C          10.1949    1.1082    0.0000 C.3     1  UNL1       -0.0070
     18 C           9.2888   -0.4473    0.0000 C.3     1  UNL1       -0.0232
     19 C           4.7396   -1.6534    0.0000 C.3     1  UNL1        0.1993
     20 C          10.1949    0.0665    0.0000 C.3     1  UNL1        0.0589
     21 C           5.7968    0.5874    0.0000 C.3     1  UNL1       -0.0590
     22 C           9.2637    2.7067    0.0000 C.3     1  UNL1       -0.0447
     23 C          11.1386    1.6434    0.0000 C.3     1  UNL1       -0.0212
     24 C           8.4189    2.1153    0.0000 C.3     1  UNL1       -0.0590
     25 C           4.6359   -2.6480    0.0000 C.3     1  UNL1        0.1095
     26 C           4.2723    0.0550    0.0000 C.3     1  UNL1       -0.0571
     27 C          10.1949    3.2636    0.0000 C.3     1  UNL1       -0.0263
     28 C          11.1386    2.7284    0.0000 C.3     1  UNL1        0.0556
     29 C           3.7227   -3.0555    0.0000 C.3     1  UNL1       -0.0171
     30 C           2.9132   -2.4684    0.0000 C.3     1  UNL1       -0.0178
     31 C           3.0169   -1.4738    0.0000 C.3     1  UNL1        0.0537
     32 C           2.0000   -2.8760    0.0000 C.3     1  UNL1       -0.0602
     33 H           8.2158   -0.9132    0.0000 H       1  UNL1        0.0310
     34 H           8.3883   -0.7626    0.0000 H       1  UNL1        0.0307
     35 H           5.5777    0.1957    0.0000 H       1  UNL1        0.0335
     36 H           9.1342    0.6680    0.0000 H       1  UNL1        0.0309
     37 H           6.6756   -2.2645    0.0000 H       1  UNL1        0.0600
     38 H           7.3187   -2.0045    0.0000 H       1  UNL1        0.0293
     39 H           7.9361   -1.4505    0.0000 H       1  UNL1        0.0293
     40 H           6.4507    1.6700    0.0000 H       1  UNL1        0.0271
     41 H           6.0522    0.9797    0.0000 H       1  UNL1        0.0271
     42 H           7.9274    2.0623    0.0000 H       1  UNL1        0.0268
     43 H           7.1303    2.0623    0.0000 H       1  UNL1        0.0268
     44 H           4.3448   -0.8482    0.0000 H       1  UNL1        0.0354
     45 H          10.9293    0.6803    0.0000 H       1  UNL1        0.0332
     46 H           8.8842   -0.9171    0.0000 H       1  UNL1        0.0293
     47 H           9.6824   -0.9263    0.0000 H       1  UNL1        0.0293
     48 H          10.1913   -0.5534    0.0000 H       1  UNL1        0.0596
     49 H           6.1068    1.1243    0.0000 H       1  UNL1        0.0235
     50 H           5.2598    0.8974    0.0000 H       1  UNL1        0.0235
     51 H           5.4868    0.0504    0.0000 H       1  UNL1        0.0235
     52 H           9.0412    3.2854    0.0000 H       1  UNL1        0.0271
     53 H           8.6555    2.5865    0.0000 H       1  UNL1        0.0271
     54 H          11.3477    1.0597    0.0000 H       1  UNL1        0.0294
     55 H          11.7495    1.7495    0.0000 H       1  UNL1        0.0294
     56 H           8.7248    2.6546    0.0000 H       1  UNL1        0.0235
     57 H           7.8796    2.4212    0.0000 H       1  UNL1        0.0235
     58 H           8.1131    1.5760    0.0000 H       1  UNL1        0.0235
     59 H           4.5716   -3.2646    0.0000 H       1  UNL1        0.0647
     60 H           4.7320    0.4710    0.0000 H       1  UNL1        0.0234
     61 H           3.8562    0.5147    0.0000 H       1  UNL1        0.0234
     62 H           3.8126   -0.3611    0.0000 H       1  UNL1        0.0234
     63 H          10.5885    3.7427    0.0000 H       1  UNL1        0.0290
     64 H           9.7903    3.7334    0.0000 H       1  UNL1        0.0290
     65 H          11.1351    3.3484    0.0000 H       1  UNL1        0.0593
     66 H           3.2771   -3.4866    0.0000 H       1  UNL1        0.0295
     67 H           4.0699   -3.5692    0.0000 H       1  UNL1        0.0295
     68 H          11.0566   -1.0568    0.0000 H       1  UNL1        0.2098
     69 H           2.4113   -2.1044    0.0000 H       1  UNL1        0.0321
     70 H           2.8664   -0.8724    0.0000 H       1  UNL1        0.0563
     71 H           2.3984   -1.5176    0.0000 H       1  UNL1        0.0563
     72 H           5.3812   -3.8517    0.0000 H       1  UNL1        0.2100
     73 H          12.0003    3.8517    0.0000 H       1  UNL1        0.2098
     74 H           1.7473   -2.3098    0.0000 H       1  UNL1        0.0233
     75 H           1.4338   -3.1286    0.0000 H       1  UNL1        0.0233
     76 H           2.2527   -3.4421    0.0000 H       1  UNL1        0.0233
@<TRIPOS>BOND
     1     1    11    1
     2    19     1    1
     3     2    19    1
     4     2    31    1
     5    20     3    1
     6     3    68    1
     7    25     4    1
     8     4    72    1
     9    28     5    1
    10     5    73    1
    11     6     7    1
    12     6     9    1
    13     6    14    1
    14     6    21    1
    15     7     8    1
    16     7    13    1
    17     7    33    1
    18     8    10    1
    19     8    18    1
    20     8    34    1
    21     9    11    1
    22     9    16    1
    23     9    35    1
    24    10    12    1
    25    10    15    1
    26    10    36    1
    27    11    13    1
    28    11    37    1
    29    12    17    1
    30    12    22    1
    31    12    24    1
    32    13    38    1
    33    13    39    1
    34    14    15    1
    35    14    40    1
    36    14    41    1
    37    15    42    1
    38    15    43    1
    39    16    19    1
    40    16    26    1
    41    16    44    1
    42    17    20    1
    43    17    23    1
    44    17    45    1
    45    18    20    1
    46    18    46    1
    47    18    47    1
    48    19    25    1
    49    20    48    1
    50    21    49    1
    51    21    50    1
    52    21    51    1
    53    22    27    1
    54    22    52    1
    55    22    53    1
    56    23    28    1
    57    23    54    1
    58    23    55    1
    59    24    56    1
    60    24    57    1
    61    24    58    1
    62    25    29    1
    63    25    59    1
    64    26    60    1
    65    26    61    1
    66    26    62    1
    67    27    28    1
    68    27    63    1
    69    27    64    1
    70    28    65    1
    71    29    30    1
    72    29    66    1
    73    29    67    1
    74    30    31    1
    75    30    32    1
    76    30    69    1
    77    31    70    1
    78    31    71    1
    79    32    74    1
    80    32    75    1
    81    32    76    1
