@<TRIPOS>MOLECULE
IMPHY007956
 105 112 0 0 0
SMALL
GASTEIGER

@<TRIPOS>ATOM
      1 O           9.1928    0.3586    0.0000 O.3     1  UNL1       -0.4834
      2 O           8.8069    0.4950    0.0000 O.3     1  UNL1       -0.4834
      3 O           7.4328    3.3933    0.0000 O.3     1  UNL1       -0.4946
      4 O          10.5549   -2.5464    0.0000 O.3     1  UNL1       -0.4946
      5 O           5.7008    0.3933    0.0000 O.3     1  UNL1       -0.5062
      6 O           7.3141   -2.8124    0.0000 O.3     1  UNL1       -0.5062
      7 O           6.4533   -2.6897    0.0000 O.3     1  UNL1       -0.4943
      8 O           4.2267   -0.0359    0.0000 O.3     1  UNL1       -0.4218
      9 O           3.0420   -3.2913    0.0000 O.3     1  UNL1       -0.5063
     10 O           2.5209   -0.3367    0.0000 O.2     1  UNL1       -0.2445
     11 C           7.0909   -0.5464    0.0000 C.3     1  UNL1        0.0273
     12 C           7.4328    0.3933    0.0000 C.ar    1  UNL1        0.0440
     13 C           7.9569   -1.0464    0.0000 C.ar    1  UNL1        0.0440
     14 C           6.1060   -0.7201    0.0000 C.3     1  UNL1       -0.0094
     15 C           8.2989    0.8933    0.0000 C.ar    1  UNL1        0.1353
     16 C           8.8229   -0.5464    0.0000 C.ar    1  UNL1        0.1353
     17 C           8.2989    1.8933    0.0000 C.ar    1  UNL1        0.0365
     18 C           9.6889   -1.0464    0.0000 C.ar    1  UNL1        0.0365
     19 C           9.1928    2.4280    0.0000 C.3     1  UNL1       -0.0171
     20 C          10.5989   -0.5396    0.0000 C.3     1  UNL1       -0.0171
     21 C          10.0989    0.8725    0.0000 C.3     1  UNL1        0.1255
     22 C           9.7049    1.0228    0.0000 C.3     1  UNL1        0.1255
     23 C          10.0989    1.9141    0.0000 C.3     1  UNL1       -0.0073
     24 C          10.6069    0.5020    0.0000 C.3     1  UNL1       -0.0073
     25 C           6.5668    0.8933    0.0000 C.ar    1  UNL1        0.1276
     26 C           7.9569   -2.0464    0.0000 C.ar    1  UNL1        0.1276
     27 C           5.3401   -1.3629    0.0000 C.ar    1  UNL1        0.0379
     28 C           7.4328    2.3933    0.0000 C.ar    1  UNL1        0.1302
     29 C           9.6889   -2.0464    0.0000 C.ar    1  UNL1        0.1302
     30 C           6.5668    1.8933    0.0000 C.ar    1  UNL1        0.0223
     31 C           8.8229   -2.5464    0.0000 C.ar    1  UNL1        0.0223
     32 C          11.0989    0.8686    0.0000 C.ar    1  UNL1       -0.0074
     33 C           9.5275    2.0069    0.0000 C.ar    1  UNL1       -0.0074
     34 C           5.5137   -2.3477    0.0000 C.ar    1  UNL1        0.1331
     35 C           4.4003   -1.0208    0.0000 C.ar    1  UNL1        0.1421
     36 C           4.7478   -2.9906    0.0000 C.ar    1  UNL1        0.0330
     37 C          11.5955    0.0007    0.0000 C.ar    1  UNL1       -0.0551
     38 C          11.6022    1.7327    0.0000 C.ar    1  UNL1       -0.0551
     39 C          10.2910    2.6527    0.0000 C.ar    1  UNL1       -0.0551
     40 C           8.5864    2.3454    0.0000 C.ar    1  UNL1       -0.0551
     41 C           3.6343   -1.6637    0.0000 C.ar    1  UNL1        0.0230
     42 C           3.8080   -2.6485    0.0000 C.ar    1  UNL1        0.1267
     43 C          12.5955   -0.0032    0.0000 C.ar    1  UNL1       -0.0614
     44 C          12.6022    1.7289    0.0000 C.ar    1  UNL1       -0.0614
     45 C          10.1136    3.6368    0.0000 C.ar    1  UNL1       -0.0614
     46 C           8.4090    3.3295    0.0000 C.ar    1  UNL1       -0.0614
     47 C           4.9212   -3.9752    0.0000 C.3     1  UNL1       -0.0327
     48 C           6.5668    3.8933    0.0000 C.3     1  UNL1        0.0788
     49 C          10.5549   -3.5464    0.0000 C.3     1  UNL1        0.0788
     50 C          13.0989    0.8609    0.0000 C.ar    1  UNL1       -0.0617
     51 C           9.1726    3.9752    0.0000 C.ar    1  UNL1       -0.0617
     52 C           6.6270   -3.6745    0.0000 C.3     1  UNL1        0.0788
     53 C           3.2870    0.3061    0.0000 C.2     1  UNL1        0.3444
     54 C           3.1133    1.2909    0.0000 C.ar    1  UNL1        0.0594
     55 C           3.8794    1.9337    0.0000 C.ar    1  UNL1       -0.0478
     56 C           2.1736    1.6329    0.0000 C.ar    1  UNL1       -0.0478
     57 C           3.7058    2.9185    0.0000 C.ar    1  UNL1       -0.0610
     58 C           2.0000    2.6177    0.0000 C.ar    1  UNL1       -0.0610
     59 C           2.7661    3.2605    0.0000 C.ar    1  UNL1       -0.0617
     60 H           6.9832   -1.1570    0.0000 H       1  UNL1        0.0405
     61 H           6.2137   -0.1095    0.0000 H       1  UNL1        0.0325
     62 H           6.3681   -1.2820    0.0000 H       1  UNL1        0.0325
     63 H           9.5864    2.9070    0.0000 H       1  UNL1        0.0317
     64 H           8.7882    2.8977    0.0000 H       1  UNL1        0.0317
     65 H          10.8035   -1.1248    0.0000 H       1  UNL1        0.0317
     66 H          11.2106   -0.4382    0.0000 H       1  UNL1        0.0317
     67 H          10.2559    0.2727    0.0000 H       1  UNL1        0.0784
     68 H          10.2121    1.3794    0.0000 H       1  UNL1        0.0784
     69 H          10.7097    1.8080    0.0000 H       1  UNL1        0.0307
     70 H          10.3079    2.4978    0.0000 H       1  UNL1        0.0307
     71 H          11.2170    0.3913    0.0000 H       1  UNL1        0.0307
     72 H          10.8205    1.0841    0.0000 H       1  UNL1        0.0307
     73 H           6.0299    2.2033    0.0000 H       1  UNL1        0.0691
     74 H           8.8229   -3.1664    0.0000 H       1  UNL1        0.0691
     75 H          11.2835   -0.5351    0.0000 H       1  UNL1        0.0621
     76 H          11.2943    2.2708    0.0000 H       1  UNL1        0.0621
     77 H          10.8744    2.4429    0.0000 H       1  UNL1        0.0621
     78 H           8.1130    1.9450    0.0000 H       1  UNL1        0.0621
     79 H           5.1639    0.7033    0.0000 H       1  UNL1        0.2921
     80 H           7.5261   -3.3950    0.0000 H       1  UNL1        0.2921
     81 H           3.0517   -1.4516    0.0000 H       1  UNL1        0.0691
     82 H          12.9035   -0.5413    0.0000 H       1  UNL1        0.0618
     83 H          12.9143    2.2646    0.0000 H       1  UNL1        0.0618
     84 H          10.5870    4.0372    0.0000 H       1  UNL1        0.0618
     85 H           7.8256    3.5393    0.0000 H       1  UNL1        0.0618
     86 H           4.3106   -4.0828    0.0000 H       1  UNL1        0.0280
     87 H           5.0288   -4.5858    0.0000 H       1  UNL1        0.0280
     88 H           5.5318   -3.8676    0.0000 H       1  UNL1        0.0280
     89 H           6.8768    4.4302    0.0000 H       1  UNL1        0.0660
     90 H           6.0299    4.2033    0.0000 H       1  UNL1        0.0660
     91 H           6.2568    3.3564    0.0000 H       1  UNL1        0.0660
     92 H           9.9349   -3.5464    0.0000 H       1  UNL1        0.0660
     93 H          10.5549   -4.1664    0.0000 H       1  UNL1        0.0660
     94 H          11.1749   -3.5464    0.0000 H       1  UNL1        0.0660
     95 H          13.7189    0.8585    0.0000 H       1  UNL1        0.0618
     96 H           9.0626    4.5854    0.0000 H       1  UNL1        0.0618
     97 H           6.0164   -3.7821    0.0000 H       1  UNL1        0.0660
     98 H           6.7346   -4.2850    0.0000 H       1  UNL1        0.0660
     99 H           7.2376   -3.5668    0.0000 H       1  UNL1        0.0660
    100 H           3.1496   -3.9019    0.0000 H       1  UNL1        0.2921
    101 H           4.4620    1.7216    0.0000 H       1  UNL1        0.0626
    102 H           1.6987    1.2344    0.0000 H       1  UNL1        0.0626
    103 H           4.1807    3.3170    0.0000 H       1  UNL1        0.0618
    104 H           1.4174    2.8298    0.0000 H       1  UNL1        0.0618
    105 H           2.6584    3.8711    0.0000 H       1  UNL1        0.0618
@<TRIPOS>BOND
     1     1    15    1
     2     1    21    1
     3     2    16    1
     4     2    22    1
     5     3    28    1
     6     3    48    1
     7     4    29    1
     8     4    49    1
     9     5    25    1
    10     5    79    1
    11     6    26    1
    12     6    80    1
    13     7    34    1
    14     7    52    1
    15     8    35    1
    16     8    53    1
    17     9    42    1
    18     9   100    1
    19    10    53    2
    20    11    12    1
    21    11    13    1
    22    11    14    1
    23    11    60    1
    24    12    15   ar
    25    12    25   ar
    26    13    16   ar
    27    13    26   ar
    28    14    27    1
    29    14    61    1
    30    14    62    1
    31    15    17   ar
    32    16    18   ar
    33    17    19    1
    34    17    28   ar
    35    18    20    1
    36    18    29   ar
    37    19    23    1
    38    19    63    1
    39    19    64    1
    40    20    24    1
    41    20    65    1
    42    20    66    1
    43    21    23    1
    44    21    32    1
    45    21    67    1
    46    22    24    1
    47    22    33    1
    48    22    68    1
    49    23    69    1
    50    23    70    1
    51    24    71    1
    52    24    72    1
    53    25    30   ar
    54    26    31   ar
    55    27    34   ar
    56    27    35   ar
    57    28    30   ar
    58    29    31   ar
    59    30    73    1
    60    31    74    1
    61    32    37   ar
    62    32    38   ar
    63    33    39   ar
    64    33    40   ar
    65    34    36   ar
    66    35    41   ar
    67    36    42   ar
    68    36    47    1
    69    37    43   ar
    70    37    75    1
    71    38    44   ar
    72    38    76    1
    73    39    45   ar
    74    39    77    1
    75    40    46   ar
    76    40    78    1
    77    41    42   ar
    78    41    81    1
    79    43    50   ar
    80    43    82    1
    81    44    50   ar
    82    44    83    1
    83    45    51   ar
    84    45    84    1
    85    46    51   ar
    86    46    85    1
    87    47    86    1
    88    47    87    1
    89    47    88    1
    90    48    89    1
    91    48    90    1
    92    48    91    1
    93    49    92    1
    94    49    93    1
    95    49    94    1
    96    50    95    1
    97    51    96    1
    98    52    97    1
    99    52    98    1
   100    52    99    1
   101    53    54    1
   102    54    55   ar
   103    54    56   ar
   104    55    57   ar
   105    55   101    1
   106    56    58   ar
   107    56   102    1
   108    57    59   ar
   109    57   103    1
   110    58    59   ar
   111    58   104    1
   112    59   105    1
