@<TRIPOS>MOLECULE
IMPHY014891
 35 38 0 0 0
SMALL
GASTEIGER

@<TRIPOS>ATOM
      1 P           6.9300    2.9664    0.0000 P.3     1  UNL1        0.4754
      2 O           7.3381    0.0153    0.0000 O.3     1  UNL1       -0.3456
      3 O           6.1857    2.2985    0.0000 O.3     1  UNL1       -0.2779
      4 O           7.8805    2.6557    0.0000 O.3     1  UNL1       -0.2840
      5 O           4.8083    0.5153    0.0000 O.3     1  UNL1       -0.3846
      6 O           7.2406    3.9169    0.0000 O.3     1  UNL1       -0.3025
      7 O           6.2621    3.7106    0.0000 O.2     1  UNL1       -0.2273
      8 O           4.2690   -4.0447    0.0000 O.2     1  UNL1       -0.2654
      9 N           6.0812   -1.2400    0.0000 N.ar    1  UNL1       -0.2854
     10 N           6.0812   -2.8494    0.0000 N.ar    1  UNL1       -0.2286
     11 N           4.2690   -1.0447    0.0000 N.ar    1  UNL1       -0.1963
     12 N           3.4030   -2.5447    0.0000 N.ar    1  UNL1       -0.2934
     13 N           2.5369   -1.0447    0.0000 N.pl3   1  UNL1       -0.3289
     14 C           6.3919    1.3200    0.0000 C.3     1  UNL1        0.1283
     15 C           7.3424    1.0093    0.0000 C.3     1  UNL1        0.1142
     16 C           5.8083    0.5153    0.0000 C.3     1  UNL1        0.1294
     17 C           6.3919   -0.2895    0.0000 C.3     1  UNL1        0.1667
     18 C           8.0867    1.6772    0.0000 C.3     1  UNL1        0.0879
     19 C           5.1350   -1.5447    0.0000 C.ar    1  UNL1        0.1712
     20 C           6.6648   -2.0447    0.0000 C.ar    1  UNL1        0.1005
     21 C           5.1350   -2.5447    0.0000 C.ar    1  UNL1        0.1721
     22 C           4.2690   -3.0447    0.0000 C.ar    1  UNL1        0.2803
     23 C           3.4030   -1.5447    0.0000 C.ar    1  UNL1        0.1950
     24 H           5.5605    1.4971    0.0000 H       1  UNL1        0.0656
     25 H           8.1179    0.6613    0.0000 H       1  UNL1        0.0647
     26 H           5.5266   -0.0370    0.0000 H       1  UNL1        0.0666
     27 H           5.7794   -0.3857    0.0000 H       1  UNL1        0.0866
     28 H           8.4144    1.1508    0.0000 H       1  UNL1        0.0592
     29 H           8.6620    1.9084    0.0000 H       1  UNL1        0.0592
     30 H           4.4983    1.0522    0.0000 H       1  UNL1        0.2101
     31 H           7.2848   -2.0447    0.0000 H       1  UNL1        0.1030
     32 H           7.8473    4.0447    0.0000 H       1  UNL1        0.2220
     33 H           2.8660   -2.8547    0.0000 H       1  UNL1        0.1716
     34 H           2.0000   -1.3547    0.0000 H       1  UNL1        0.1451
     35 H           2.5369   -0.4247    0.0000 H       1  UNL1        0.1451
@<TRIPOS>BOND
     1     1     3    1
     2     1     4    1
     3     1     6    1
     4     1     7    2
     5     2    15    1
     6     2    17    1
     7     3    14    1
     8     4    18    1
     9    16     5    1
    10     5    30    1
    11     6    32    1
    12     8    22    2
    13    17     9    1
    14     9    19   ar
    15     9    20   ar
    16    10    20   ar
    17    10    21   ar
    18    11    19   ar
    19    11    23   ar
    20    12    22   ar
    21    12    23   ar
    22    12    33    1
    23    13    23    1
    24    13    34    1
    25    13    35    1
    26    14    15    1
    27    14    16    1
    28    14    24    1
    29    15    18    1
    30    15    25    1
    31    16    17    1
    32    16    26    1
    33    17    27    1
    34    18    28    1
    35    18    29    1
    36    19    21   ar
    37    20    31    1
    38    21    22   ar
