@<TRIPOS>MOLECULE
IMPHY016368
 84 83 0 0 0
SMALL
GASTEIGER

@<TRIPOS>ATOM
      1 SI          4.5981   -0.1340    0.0000 Si      1  UNL1        0.0000
      2 SI          6.4641    0.3660    0.0000 Si      1  UNL1        0.0000
      3 SI          2.8660   -0.1340    0.0000 Si      1  UNL1        0.0000
      4 SI          4.5981    1.5981    0.0000 Si      1  UNL1        0.0000
      5 SI          4.5981   -1.8660    0.0000 Si      1  UNL1        0.0000
      6 SI          8.4641    0.3661    0.0000 Si      1  UNL1        0.0000
      7 SI          7.3301    1.8660    0.0000 Si      1  UNL1        0.0000
      8 O           5.4641    0.3660    0.0000 O.3     1  UNL1        0.0000
      9 O           3.7320   -0.6340    0.0000 O.3     1  UNL1        0.0000
     10 O           4.0981    0.7321    0.0000 O.3     1  UNL1        0.0000
     11 O           5.0981   -1.0000    0.0000 O.3     1  UNL1        0.0000
     12 O           7.4641    0.3660    0.0000 O.3     1  UNL1        0.0000
     13 O           6.4641    1.3660    0.0000 O.3     1  UNL1        0.0000
     14 O           6.4641   -0.6340    0.0000 O.3     1  UNL1        0.0000
     15 C           2.0000    0.3660    0.0000 C.3     1  UNL1        0.0000
     16 C           2.3660   -1.0000    0.0000 C.3     1  UNL1        0.0000
     17 C           3.3660    0.7321    0.0000 C.3     1  UNL1        0.0000
     18 C           5.0981    2.4641    0.0000 C.3     1  UNL1        0.0000
     19 C           3.7320    2.0981    0.0000 C.3     1  UNL1        0.0000
     20 C           5.4641    1.0981    0.0000 C.3     1  UNL1        0.0000
     21 C           4.0981   -2.7320    0.0000 C.3     1  UNL1        0.0000
     22 C           5.4641   -2.3660    0.0000 C.3     1  UNL1        0.0000
     23 C           3.7320   -1.3660    0.0000 C.3     1  UNL1        0.0000
     24 C           6.9641   -1.5000    0.0000 C.3     1  UNL1        0.0000
     25 C           9.4641    0.3661    0.0000 C.3     1  UNL1        0.0000
     26 C           8.4641    1.3660    0.0000 C.3     1  UNL1        0.0000
     27 C           8.4641   -0.6340    0.0000 C.3     1  UNL1        0.0000
     28 C           6.8301    2.7320    0.0000 C.3     1  UNL1        0.0000
     29 C           8.1962    2.3660    0.0000 C.3     1  UNL1        0.0000
     30 C           7.8301    1.0000    0.0000 C.3     1  UNL1        0.0000
     31 C           7.4641   -2.3660    0.0000 C.3     1  UNL1        0.0000
     32 C           6.4643   -2.3660    0.0000 C.3     1  UNL1        0.0000
     33 H           2.3100    0.9030    0.0000 H       1  UNL1        0.0000
     34 H           1.4631    0.6760    0.0000 H       1  UNL1        0.0000
     35 H           1.6900   -0.1709    0.0000 H       1  UNL1        0.0000
     36 H           1.8291   -0.6900    0.0000 H       1  UNL1        0.0000
     37 H           2.0560   -1.5369    0.0000 H       1  UNL1        0.0000
     38 H           2.9030   -1.3100    0.0000 H       1  UNL1        0.0000
     39 H           3.9030    0.4221    0.0000 H       1  UNL1        0.0000
     40 H           3.6760    1.2690    0.0000 H       1  UNL1        0.0000
     41 H           2.8291    1.0420    0.0000 H       1  UNL1        0.0000
     42 H           5.6350    2.1541    0.0000 H       1  UNL1        0.0000
     43 H           5.4081    3.0010    0.0000 H       1  UNL1        0.0000
     44 H           4.5611    2.7741    0.0000 H       1  UNL1        0.0000
     45 H           4.0420    2.6350    0.0000 H       1  UNL1        0.0000
     46 H           3.1951    2.4081    0.0000 H       1  UNL1        0.0000
     47 H           3.4220    1.5611    0.0000 H       1  UNL1        0.0000
     48 H           5.1541    0.5611    0.0000 H       1  UNL1        0.0000
     49 H           6.0010    0.7881    0.0000 H       1  UNL1        0.0000
     50 H           5.7741    1.6350    0.0000 H       1  UNL1        0.0000
     51 H           3.5611   -2.4220    0.0000 H       1  UNL1        0.0000
     52 H           3.7881   -3.2690    0.0000 H       1  UNL1        0.0000
     53 H           4.6350   -3.0420    0.0000 H       1  UNL1        0.0000
     54 H           5.1541   -2.9030    0.0000 H       1  UNL1        0.0000
     55 H           6.0010   -2.6760    0.0000 H       1  UNL1        0.0000
     56 H           5.7741   -1.8291    0.0000 H       1  UNL1        0.0000
     57 H           4.0420   -0.8291    0.0000 H       1  UNL1        0.0000
     58 H           3.1951   -1.0560    0.0000 H       1  UNL1        0.0000
     59 H           3.4220   -1.9030    0.0000 H       1  UNL1        0.0000
     60 H           7.5010   -1.1900    0.0000 H       1  UNL1        0.0000
     61 H           9.4641   -0.2539    0.0000 H       1  UNL1        0.0000
     62 H          10.0841    0.3661    0.0000 H       1  UNL1        0.0000
     63 H           9.4641    0.9861    0.0000 H       1  UNL1        0.0000
     64 H           9.0841    1.3660    0.0000 H       1  UNL1        0.0000
     65 H           8.4641    1.9860    0.0000 H       1  UNL1        0.0000
     66 H           7.8441    1.3660    0.0000 H       1  UNL1        0.0000
     67 H           7.8441   -0.6340    0.0000 H       1  UNL1        0.0000
     68 H           8.4641   -1.2540    0.0000 H       1  UNL1        0.0000
     69 H           9.0841   -0.6340    0.0000 H       1  UNL1        0.0000
     70 H           7.3671    3.0420    0.0000 H       1  UNL1        0.0000
     71 H           6.5201    3.2690    0.0000 H       1  UNL1        0.0000
     72 H           6.2932    2.4220    0.0000 H       1  UNL1        0.0000
     73 H           8.5062    1.8291    0.0000 H       1  UNL1        0.0000
     74 H           8.7331    2.6760    0.0000 H       1  UNL1        0.0000
     75 H           7.8862    2.9030    0.0000 H       1  UNL1        0.0000
     76 H           7.2932    0.6900    0.0000 H       1  UNL1        0.0000
     77 H           8.1401    0.4631    0.0000 H       1  UNL1        0.0000
     78 H           8.3671    1.3100    0.0000 H       1  UNL1        0.0000
     79 H           6.9272   -2.6760    0.0000 H       1  UNL1        0.0000
     80 H           7.7741   -2.9030    0.0000 H       1  UNL1        0.0000
     81 H           8.0010   -2.0560    0.0000 H       1  UNL1        0.0000
     82 H           5.9273   -2.0561    0.0000 H       1  UNL1        0.0000
     83 H           6.1544   -2.9030    0.0000 H       1  UNL1        0.0000
     84 H           7.0013   -2.6759    0.0000 H       1  UNL1        0.0000
@<TRIPOS>BOND
     1     1     8    1
     2     1     9    1
     3     1    10    1
     4     1    11    1
     5     2     8    1
     6     2    12    1
     7     2    13    1
     8     2    14    1
     9     3     9    1
    10     3    15    1
    11     3    16    1
    12     3    17    1
    13     4    10    1
    14     4    18    1
    15     4    19    1
    16     4    20    1
    17     5    11    1
    18     5    21    1
    19     5    22    1
    20     5    23    1
    21     6    12    1
    22     6    25    1
    23     6    26    1
    24     6    27    1
    25     7    13    1
    26     7    28    1
    27     7    29    1
    28     7    30    1
    29    14    24    1
    30    15    33    1
    31    15    34    1
    32    15    35    1
    33    16    36    1
    34    16    37    1
    35    16    38    1
    36    17    39    1
    37    17    40    1
    38    17    41    1
    39    18    42    1
    40    18    43    1
    41    18    44    1
    42    19    45    1
    43    19    46    1
    44    19    47    1
    45    20    48    1
    46    20    49    1
    47    20    50    1
    48    21    51    1
    49    21    52    1
    50    21    53    1
    51    22    54    1
    52    22    55    1
    53    22    56    1
    54    23    57    1
    55    23    58    1
    56    23    59    1
    57    24    31    1
    58    24    32    1
    59    24    60    1
    60    25    61    1
    61    25    62    1
    62    25    63    1
    63    26    64    1
    64    26    65    1
    65    26    66    1
    66    27    67    1
    67    27    68    1
    68    27    69    1
    69    28    70    1
    70    28    71    1
    71    28    72    1
    72    29    73    1
    73    29    74    1
    74    29    75    1
    75    30    76    1
    76    30    77    1
    77    30    78    1
    78    31    79    1
    79    31    80    1
    80    31    81    1
    81    32    82    1
    82    32    83    1
    83    32    84    1
