@<TRIPOS>MOLECULE
IMPHY008636
 77 81 0 0 0
SMALL
GASTEIGER

@<TRIPOS>ATOM
      1 O           2.5357   -2.5933    0.0000 O.3     1  UNL1       -0.3912
      2 O          10.5929   -1.0651    0.0000 O.2     1  UNL1       -0.2971
      3 C           7.0628   -1.0410    0.0000 C.3     1  UNL1       -0.0190
      4 C           5.2868   -1.0478    0.0000 C.3     1  UNL1       -0.0250
      5 C           6.1968   -0.5410    0.0000 C.3     1  UNL1       -0.0257
      6 C           5.2787   -2.0894    0.0000 C.3     1  UNL1       -0.0278
      7 C           7.9288   -0.5410    0.0000 C.3     1  UNL1        0.0015
      8 C           7.0789   -2.0825    0.0000 C.3     1  UNL1       -0.0463
      9 C           4.3433   -2.6391    0.0000 C.3     1  UNL1       -0.0056
     10 C           6.1808   -2.6102    0.0000 C.3     1  UNL1       -0.0486
     11 C           4.3599   -0.4837    0.0000 C.3     1  UNL1       -0.0447
     12 C           7.9288    0.4590    0.0000 C.2     1  UNL1       -0.0629
     13 C           6.1968    0.4590    0.0000 C.3     1  UNL1       -0.0306
     14 C           8.8228    0.9937    0.0000 C.3     1  UNL1       -0.0094
     15 C           8.8228   -1.0756    0.0000 C.3     1  UNL1        0.0157
     16 C           3.4037   -2.0966    0.0000 C.3     1  UNL1        0.0606
     17 C           7.7056   -1.8070    0.0000 C.3     1  UNL1       -0.0585
     18 C           5.2945   -0.0478    0.0000 C.3     1  UNL1       -0.0590
     19 C           3.4120   -1.0117    0.0000 C.3     1  UNL1       -0.0258
     20 C           7.0628    0.9590    0.0000 C.2     1  UNL1       -0.0836
     21 C           9.7288    0.4799    0.0000 C.3     1  UNL1        0.0241
     22 C           8.2709   -1.4806    0.0000 C.3     1  UNL1       -0.0549
     23 C           9.7288   -0.5618    0.0000 C.2     1  UNL1        0.1378
     24 C           8.7977    2.0784    0.0000 C.3     1  UNL1       -0.0407
     25 C           3.8467   -3.5071    0.0000 C.3     1  UNL1       -0.0572
     26 C           4.8466   -3.5032    0.0000 C.3     1  UNL1       -0.0572
     27 C           9.7288    2.6353    0.0000 C.3     1  UNL1       -0.0343
     28 C          10.6726    1.0151    0.0000 C.3     1  UNL1       -0.0425
     29 C          10.6726    2.1001    0.0000 C.3     1  UNL1       -0.0472
     30 C          10.2188    3.5071    0.0000 C.3     1  UNL1       -0.0598
     31 C           9.2188    3.4955    0.0000 C.3     1  UNL1       -0.0598
     32 H           6.9329   -0.1160    0.0000 H       1  UNL1        0.0315
     33 H           5.2820   -2.9394    0.0000 H       1  UNL1        0.0312
     34 H           7.2969   -2.6629    0.0000 H       1  UNL1        0.0271
     35 H           7.6880   -1.9670    0.0000 H       1  UNL1        0.0271
     36 H           5.7835   -3.0862    0.0000 H       1  UNL1        0.0268
     37 H           6.5818   -3.0831    0.0000 H       1  UNL1        0.0268
     38 H           4.7681   -0.0171    0.0000 H       1  UNL1        0.0271
     39 H           3.9700   -0.0017    0.0000 H       1  UNL1        0.0271
     40 H           5.9847    1.0416    0.0000 H       1  UNL1        0.0310
     41 H           5.5862    0.3514    0.0000 H       1  UNL1        0.0310
     42 H           9.5522    1.4300    0.0000 H       1  UNL1        0.0353
     43 H           8.4182   -1.5454    0.0000 H       1  UNL1        0.0350
     44 H           9.2164   -1.5546    0.0000 H       1  UNL1        0.0350
     45 H           3.4025   -2.7166    0.0000 H       1  UNL1        0.0599
     46 H           7.2306   -2.2055    0.0000 H       1  UNL1        0.0235
     47 H           8.1041   -2.2820    0.0000 H       1  UNL1        0.0235
     48 H           8.1805   -1.4085    0.0000 H       1  UNL1        0.0235
     49 H           5.9145   -0.0526    0.0000 H       1  UNL1        0.0235
     50 H           5.2993    0.5721    0.0000 H       1  UNL1        0.0235
     51 H           4.6745   -0.0431    0.0000 H       1  UNL1        0.0235
     52 H           3.2075   -0.4264    0.0000 H       1  UNL1        0.0290
     53 H           2.8004   -1.1131    0.0000 H       1  UNL1        0.0290
     54 H           7.0628    1.5790    0.0000 H       1  UNL1        0.0572
     55 H          10.4633    0.0520    0.0000 H       1  UNL1        0.0383
     56 H           7.6884   -1.6927    0.0000 H       1  UNL1        0.0238
     57 H           8.4830   -2.0632    0.0000 H       1  UNL1        0.0238
     58 H           8.8535   -1.2685    0.0000 H       1  UNL1        0.0238
     59 H           8.5752    2.6571    0.0000 H       1  UNL1        0.0276
     60 H           8.1894    1.9582    0.0000 H       1  UNL1        0.0276
     61 H           4.3109   -3.8153    0.0000 H       1  UNL1        0.0236
     62 H           5.1587   -4.0390    0.0000 H       1  UNL1        0.0236
     63 H           5.3824   -3.1912    0.0000 H       1  UNL1        0.0236
     64 H           3.3085   -3.1992    0.0000 H       1  UNL1        0.0236
     65 H           3.5387   -4.0452    0.0000 H       1  UNL1        0.0236
     66 H           4.3848   -3.8150    0.0000 H       1  UNL1        0.0236
     67 H          10.8817    0.4314    0.0000 H       1  UNL1        0.0272
     68 H          11.2835    1.1212    0.0000 H       1  UNL1        0.0272
     69 H          11.2835    1.9940    0.0000 H       1  UNL1        0.0271
     70 H          10.8817    2.6838    0.0000 H       1  UNL1        0.0271
     71 H           2.0000   -2.2812    0.0000 H       1  UNL1        0.2098
     72 H           9.7522    3.8117    0.0000 H       1  UNL1        0.0235
     73 H           8.9027    4.0288    0.0000 H       1  UNL1        0.0235
     74 H          10.7593    3.2033    0.0000 H       1  UNL1        0.0235
     75 H           8.6855    3.1793    0.0000 H       1  UNL1        0.0235
     76 H          10.5226    4.0476    0.0000 H       1  UNL1        0.0235
     77 H           9.6783    3.8108    0.0000 H       1  UNL1        0.0235
@<TRIPOS>BOND
     1    16     1    1
     2     1    71    1
     3     2    23    2
     4     3     5    1
     5     3     7    1
     6     3     8    1
     7     3    17    1
     8     4     5    1
     9     4     6    1
    10     4    11    1
    11     4    18    1
    12     5    13    1
    13     5    32    1
    14     6     9    1
    15     6    10    1
    16     6    33    1
    17     7    12    1
    18     7    15    1
    19     7    22    1
    20     8    10    1
    21     8    34    1
    22     8    35    1
    23     9    16    1
    24     9    25    1
    25     9    26    1
    26    10    36    1
    27    10    37    1
    28    11    19    1
    29    11    38    1
    30    11    39    1
    31    12    14    1
    32    12    20    2
    33    13    20    1
    34    13    40    1
    35    13    41    1
    36    14    21    1
    37    14    24    1
    38    14    42    1
    39    15    23    1
    40    15    43    1
    41    15    44    1
    42    16    19    1
    43    16    45    1
    44    17    46    1
    45    17    47    1
    46    17    48    1
    47    18    49    1
    48    18    50    1
    49    18    51    1
    50    19    52    1
    51    19    53    1
    52    20    54    1
    53    21    23    1
    54    21    28    1
    55    21    55    1
    56    22    56    1
    57    22    57    1
    58    22    58    1
    59    24    27    1
    60    24    59    1
    61    24    60    1
    62    25    64    1
    63    25    65    1
    64    25    66    1
    65    26    61    1
    66    26    62    1
    67    26    63    1
    68    27    29    1
    69    27    30    1
    70    27    31    1
    71    28    29    1
    72    28    67    1
    73    28    68    1
    74    29    69    1
    75    29    70    1
    76    30    74    1
    77    30    76    1
    78    30    77    1
    79    31    72    1
    80    31    73    1
    81    31    75    1
