@<TRIPOS>MOLECULE
IMPHY001079
 79 83 0 0 0
SMALL
GASTEIGER

@<TRIPOS>ATOM
      1 O           2.0000   -1.9012    0.0000 O.2     1  UNL1       -0.2965
      2 C           7.3931    1.1511    0.0000 C.3     1  UNL1       -0.0230
      3 C           7.3931    0.1511    0.0000 C.3     1  UNL1       -0.0228
      4 C           8.2870    1.6858    0.0000 C.3     1  UNL1       -0.0294
      5 C           9.1931    1.1719    0.0000 C.3     1  UNL1       -0.0256
      6 C           6.5271   -0.3489    0.0000 C.3     1  UNL1       -0.0257
      7 C           5.6610    0.1511    0.0000 C.3     1  UNL1       -0.0219
      8 C           8.2870   -0.3835    0.0000 C.3     1  UNL1       -0.0463
      9 C           6.5271    1.6511    0.0000 C.3     1  UNL1       -0.0463
     10 C           9.9554    1.8727    0.0000 C.3     1  UNL1       -0.0330
     11 C           9.1931    0.1303    0.0000 C.3     1  UNL1       -0.0466
     12 C           8.4971    2.6997    0.0000 C.3     1  UNL1       -0.0489
     13 C           5.6610    1.1511    0.0000 C.3     1  UNL1       -0.0463
     14 C           9.5262    2.8150    0.0000 C.3     1  UNL1       -0.0492
     15 C           4.7510   -0.3557    0.0000 C.3     1  UNL1       -0.0129
     16 C           7.3931    2.1511    0.0000 C.3     1  UNL1       -0.0588
     17 C           7.3931   -0.8489    0.0000 C.3     1  UNL1       -0.0588
     18 C           6.5431   -1.3904    0.0000 C.3     1  UNL1       -0.0306
     19 C          10.0629    0.6786    0.0000 C.3     1  UNL1       -0.0590
     20 C          10.9355    1.6740    0.0000 C.3     1  UNL1       -0.0434
     21 C           4.7950    0.6511    0.0000 C.3     1  UNL1       -0.0587
     22 C           4.7430   -1.3973    0.0000 C.2     1  UNL1       -0.0571
     23 C           5.6451   -1.9181    0.0000 C.2     1  UNL1       -0.0833
     24 C           3.8242    0.2084    0.0000 C.3     1  UNL1       -0.0393
     25 C           3.8076   -1.9470    0.0000 C.3     1  UNL1        0.0445
     26 C           2.8763   -0.3196    0.0000 C.3     1  UNL1        0.0072
     27 C          11.5976    2.4234    0.0000 C.3     1  UNL1       -0.0624
     28 C          11.2535    0.7259    0.0000 C.3     1  UNL1       -0.0624
     29 C           2.8680   -1.4046    0.0000 C.2     1  UNL1        0.1429
     30 C           3.3109   -2.8150    0.0000 C.3     1  UNL1       -0.0493
     31 C           4.3109   -2.8111    0.0000 C.3     1  UNL1       -0.0493
     32 H           9.0613    2.0365    0.0000 H       1  UNL1        0.0312
     33 H           7.2664   -0.7682    0.0000 H       1  UNL1        0.0315
     34 H           7.8824   -0.8533    0.0000 H       1  UNL1        0.0271
     35 H           8.6806   -0.8626    0.0000 H       1  UNL1        0.0271
     36 H           6.9256    2.1261    0.0000 H       1  UNL1        0.0271
     37 H           6.1285    2.1261    0.0000 H       1  UNL1        0.0271
     38 H          10.3412    2.3580    0.0000 H       1  UNL1        0.0309
     39 H           9.4022   -0.4534    0.0000 H       1  UNL1        0.0271
     40 H           9.8040    0.2364    0.0000 H       1  UNL1        0.0271
     41 H           8.4932    3.3197    0.0000 H       1  UNL1        0.0268
     42 H           7.8802    2.7610    0.0000 H       1  UNL1        0.0268
     43 H           5.4490    1.7337    0.0000 H       1  UNL1        0.0271
     44 H           5.0504    1.0435    0.0000 H       1  UNL1        0.0271
     45 H          10.1143    3.0113    0.0000 H       1  UNL1        0.0268
     46 H           9.3928    3.4205    0.0000 H       1  UNL1        0.0268
     47 H           5.4822   -0.7892    0.0000 H       1  UNL1        0.0351
     48 H           8.0131    2.1511    0.0000 H       1  UNL1        0.0235
     49 H           7.3931    2.7711    0.0000 H       1  UNL1        0.0235
     50 H           6.7731    2.1511    0.0000 H       1  UNL1        0.0235
     51 H           6.7731   -0.8489    0.0000 H       1  UNL1        0.0235
     52 H           7.3931   -1.4689    0.0000 H       1  UNL1        0.0235
     53 H           8.0131   -0.8489    0.0000 H       1  UNL1        0.0235
     54 H           6.7612   -1.9708    0.0000 H       1  UNL1        0.0310
     55 H           7.1523   -1.2749    0.0000 H       1  UNL1        0.0310
     56 H           9.7571    0.1393    0.0000 H       1  UNL1        0.0235
     57 H          10.6023    0.3728    0.0000 H       1  UNL1        0.0235
     58 H          10.3688    1.2179    0.0000 H       1  UNL1        0.0235
     59 H          10.5250    1.2094    0.0000 H       1  UNL1        0.0298
     60 H           5.1050    1.1881    0.0000 H       1  UNL1        0.0235
     61 H           4.2581    0.9611    0.0000 H       1  UNL1        0.0235
     62 H           4.4850    0.1142    0.0000 H       1  UNL1        0.0235
     63 H           5.6475   -2.5381    0.0000 H       1  UNL1        0.0572
     64 H           4.2324    0.6750    0.0000 H       1  UNL1        0.0275
     65 H           3.4343    0.6904    0.0000 H       1  UNL1        0.0275
     66 H           2.6718    0.2657    0.0000 H       1  UNL1        0.0342
     67 H           2.2647   -0.4210    0.0000 H       1  UNL1        0.0342
     68 H          12.0622    2.0130    0.0000 H       1  UNL1        0.0232
     69 H          12.0081    2.8881    0.0000 H       1  UNL1        0.0232
     70 H          11.1329    2.8340    0.0000 H       1  UNL1        0.0232
     71 H          10.6656    0.5288    0.0000 H       1  UNL1        0.0232
     72 H          11.4506    0.1381    0.0000 H       1  UNL1        0.0232
     73 H          11.8413    0.9231    0.0000 H       1  UNL1        0.0232
     74 H           2.7728   -2.5071    0.0000 H       1  UNL1        0.0242
     75 H           3.0030   -3.3531    0.0000 H       1  UNL1        0.0242
     76 H           3.8490   -3.1229    0.0000 H       1  UNL1        0.0242
     77 H           3.7752   -3.1232    0.0000 H       1  UNL1        0.0242
     78 H           4.6230   -3.3469    0.0000 H       1  UNL1        0.0242
     79 H           4.8466   -2.4991    0.0000 H       1  UNL1        0.0242
@<TRIPOS>BOND
     1     1    29    2
     2     2     3    1
     3     2     4    1
     4     2     9    1
     5     2    16    1
     6     3     6    1
     7     3     8    1
     8     3    17    1
     9     4     5    1
    10     4    12    1
    11     4    32    1
    12     5    10    1
    13     5    11    1
    14     5    19    1
    15     6     7    1
    16     6    18    1
    17     6    33    1
    18     7    13    1
    19     7    15    1
    20     7    21    1
    21     8    11    1
    22     8    34    1
    23     8    35    1
    24     9    13    1
    25     9    36    1
    26     9    37    1
    27    10    14    1
    28    10    20    1
    29    10    38    1
    30    11    39    1
    31    11    40    1
    32    12    14    1
    33    12    41    1
    34    12    42    1
    35    13    43    1
    36    13    44    1
    37    14    45    1
    38    14    46    1
    39    15    22    1
    40    15    24    1
    41    15    47    1
    42    16    48    1
    43    16    49    1
    44    16    50    1
    45    17    51    1
    46    17    52    1
    47    17    53    1
    48    18    23    1
    49    18    54    1
    50    18    55    1
    51    19    56    1
    52    19    57    1
    53    19    58    1
    54    20    27    1
    55    20    28    1
    56    20    59    1
    57    21    60    1
    58    21    61    1
    59    21    62    1
    60    22    23    2
    61    22    25    1
    62    23    63    1
    63    24    26    1
    64    24    64    1
    65    24    65    1
    66    25    29    1
    67    25    30    1
    68    25    31    1
    69    26    29    1
    70    26    66    1
    71    26    67    1
    72    27    68    1
    73    27    69    1
    74    27    70    1
    75    28    71    1
    76    28    72    1
    77    28    73    1
    78    30    74    1
    79    30    75    1
    80    30    76    1
    81    31    77    1
    82    31    78    1
    83    31    79    1
