@<TRIPOS>MOLECULE
IMPHY001347
 79 84 0 0 0
SMALL
GASTEIGER

@<TRIPOS>ATOM
      1 S           6.8671    0.6067    0.0000 S.3     1  UNL1       -0.1517
      2 O           7.6577    3.8008    0.0000 O.3     1  UNL1       -0.4586
      3 O           6.7371    2.1560    0.0000 O.3     1  UNL1       -0.3760
      4 O          12.1732    3.6931    0.0000 O.3     1  UNL1       -0.4562
      5 O           6.1484    2.9001    0.0000 O.2     1  UNL1       -0.2475
      6 O          11.2498    5.2033    0.0000 O.2     1  UNL1       -0.2505
      7 O          14.6260    1.8150    0.0000 O.2     1  UNL1       -0.4706
      8 O           6.0010   -1.8933    0.0000 O.3     1  UNL1       -0.3479
      9 O           4.2690   -1.8933    0.0000 O.3     1  UNL1       -0.3405
     10 O           6.0010   -3.8933    0.0000 O.3     1  UNL1       -0.3841
     11 O           4.2690   -4.8933    0.0000 O.3     1  UNL1       -0.3864
     12 O           2.5369   -3.8933    0.0000 O.3     1  UNL1       -0.3865
     13 O           2.5369   -0.8933    0.0000 O.3     1  UNL1       -0.3924
     14 C           8.6451    2.6587    0.0000 C.3     1  UNL1        0.0485
     15 C           9.5131    2.1620    0.0000 C.3     1  UNL1       -0.0227
     16 C          10.3772    2.6653    0.0000 C.3     1  UNL1       -0.0119
     17 C           7.7371    2.1483    0.0000 C.3     1  UNL1        0.1828
     18 C           8.6413    3.6586    0.0000 C.3     1  UNL1        0.1127
     19 C          10.3733    3.6653    0.0000 C.3     1  UNL1        0.0656
     20 C           9.5054    4.1620    0.0000 C.3     1  UNL1       -0.0016
     21 C           9.5332    1.1206    0.0000 C.3     1  UNL1       -0.0479
     22 C           7.7331    1.1067    0.0000 C.3     1  UNL1        0.0452
     23 C          11.2732    2.1341    0.0000 C.3     1  UNL1       -0.0049
     24 C           8.6372    0.5894    0.0000 C.3     1  UNL1       -0.0376
     25 C           8.6490    1.6587    0.0000 C.3     1  UNL1       -0.0527
     26 C           7.1472    2.9481    0.0000 C.2     1  UNL1        0.3412
     27 C          10.3810    1.6653    0.0000 C.3     1  UNL1       -0.0584
     28 C          12.1773    2.6515    0.0000 C.3     1  UNL1        0.1315
     29 C          11.2652    4.2034    0.0000 C.2     1  UNL1        0.3114
     30 C          13.0433    2.1515    0.0000 C.ar    1  UNL1        0.0304
     31 C           6.8671   -0.3933    0.0000 C.3     1  UNL1        0.0176
     32 C          13.1478    1.1569    0.0000 C.ar    1  UNL1       -0.0172
     33 C          13.9568    2.5582    0.0000 C.ar    1  UNL1        0.0983
     34 C           6.0010   -0.8933    0.0000 C.3     1  UNL1        0.0597
     35 C          14.1260    0.9490    0.0000 C.ar    1  UNL1        0.0921
     36 C           5.1350   -2.3933    0.0000 C.3     1  UNL1        0.1879
     37 C           5.1350   -3.3933    0.0000 C.3     1  UNL1        0.1341
     38 C           4.2690   -3.8933    0.0000 C.3     1  UNL1        0.1141
     39 C           3.4030   -2.3933    0.0000 C.3     1  UNL1        0.1130
     40 C           3.4030   -3.3933    0.0000 C.3     1  UNL1        0.1119
     41 C           2.5369   -1.8933    0.0000 C.3     1  UNL1        0.0730
     42 H          10.2541    1.7455    0.0000 H       1  UNL1        0.0314
     43 H           8.4791    4.4930    0.0000 H       1  UNL1        0.0741
     44 H          10.3635    4.5153    0.0000 H       1  UNL1        0.0420
     45 H           9.9021    4.6385    0.0000 H       1  UNL1        0.0309
     46 H           9.1050    4.6354    0.0000 H       1  UNL1        0.0309
     47 H           9.7534    0.5410    0.0000 H       1  UNL1        0.0269
     48 H          10.1419    1.2384    0.0000 H       1  UNL1        0.0269
     49 H           7.1968    1.4177    0.0000 H       1  UNL1        0.0446
     50 H          10.8704    1.6628    0.0000 H       1  UNL1        0.0310
     51 H          11.6686    1.6566    0.0000 H       1  UNL1        0.0310
     52 H           8.2417    0.1119    0.0000 H       1  UNL1        0.0277
     53 H           9.0399    0.1180    0.0000 H       1  UNL1        0.0277
     54 H           8.0290    1.6563    0.0000 H       1  UNL1        0.0237
     55 H           8.6514    1.0387    0.0000 H       1  UNL1        0.0237
     56 H           9.2690    1.6611    0.0000 H       1  UNL1        0.0237
     57 H           9.7610    1.6630    0.0000 H       1  UNL1        0.0235
     58 H          10.3834    1.0454    0.0000 H       1  UNL1        0.0235
     59 H          11.0010    1.6677    0.0000 H       1  UNL1        0.0235
     60 H          12.1761    2.0315    0.0000 H       1  UNL1        0.0786
     61 H           6.4230    1.6215    0.0000 H       1  UNL1        0.2110
     62 H           7.0791   -0.9759    0.0000 H       1  UNL1        0.0399
     63 H           7.4776   -0.2857    0.0000 H       1  UNL1        0.0399
     64 H          12.6871    0.7421    0.0000 H       1  UNL1        0.0653
     65 H          14.0857    3.1646    0.0000 H       1  UNL1        0.1033
     66 H           5.7890   -0.3107    0.0000 H       1  UNL1        0.0569
     67 H           5.3905   -1.0010    0.0000 H       1  UNL1        0.0569
     68 H          14.3781    0.3826    0.0000 H       1  UNL1        0.1029
     69 H           5.6720   -2.7033    0.0000 H       1  UNL1        0.0937
     70 H           5.1350   -4.0133    0.0000 H       1  UNL1        0.0671
     71 H           3.7320   -4.2033    0.0000 H       1  UNL1        0.0648
     72 H           3.4030   -1.7733    0.0000 H       1  UNL1        0.0647
     73 H           2.8660   -3.0833    0.0000 H       1  UNL1        0.0647
     74 H           1.9264   -1.7856    0.0000 H       1  UNL1        0.0584
     75 H           2.3249   -2.4759    0.0000 H       1  UNL1        0.0584
     76 H           6.5380   -3.5833    0.0000 H       1  UNL1        0.2101
     77 H           3.7320   -5.2033    0.0000 H       1  UNL1        0.2100
     78 H           2.0000   -3.5833    0.0000 H       1  UNL1        0.2100
     79 H           2.0000   -0.5833    0.0000 H       1  UNL1        0.2095
@<TRIPOS>BOND
     1    22     1    1
     2     1    31    1
     3     2    18    1
     4     2    26    1
     5    17     3    1
     6     3    61    1
     7     4    28    1
     8     4    29    1
     9     5    26    2
    10     6    29    2
    11     7    33   ar
    12     7    35   ar
    13     8    34    1
    14    36     8    1
    15     9    36    1
    16     9    39    1
    17    37    10    1
    18    10    76    1
    19    38    11    1
    20    11    77    1
    21    40    12    1
    22    12    78    1
    23    13    41    1
    24    13    79    1
    25    14    15    1
    26    14    17    1
    27    14    18    1
    28    14    25    1
    29    15    16    1
    30    15    21    1
    31    15    42    1
    32    16    19    1
    33    16    23    1
    34    16    27    1
    35    17    22    1
    36    17    26    1
    37    18    20    1
    38    18    43    1
    39    19    20    1
    40    19    29    1
    41    19    44    1
    42    20    45    1
    43    20    46    1
    44    21    24    1
    45    21    47    1
    46    21    48    1
    47    22    24    1
    48    22    49    1
    49    23    28    1
    50    23    50    1
    51    23    51    1
    52    24    52    1
    53    24    53    1
    54    25    54    1
    55    25    55    1
    56    25    56    1
    57    27    57    1
    58    27    58    1
    59    27    59    1
    60    28    30    1
    61    28    60    1
    62    30    32   ar
    63    30    33   ar
    64    31    34    1
    65    31    62    1
    66    31    63    1
    67    32    35   ar
    68    32    64    1
    69    33    65    1
    70    34    66    1
    71    34    67    1
    72    35    68    1
    73    36    37    1
    74    36    69    1
    75    37    38    1
    76    37    70    1
    77    38    40    1
    78    38    71    1
    79    39    40    1
    80    39    41    1
    81    39    72    1
    82    40    73    1
    83    41    74    1
    84    41    75    1
