@<TRIPOS>MOLECULE
IMPHY001659
 177 186 0 0 0
SMALL
GASTEIGER

@<TRIPOS>ATOM
      1 O          10.8882    2.6557    0.0000 O.3     1  UNL1       -0.3450
      2 O           9.3592    3.8876    0.0000 O.3     1  UNL1       -0.3642
      3 O           9.4651   -5.5884    0.0000 O.3     1  UNL1       -0.3454
      4 O           7.7331   -5.5884    0.0000 O.3     1  UNL1       -0.3405
      5 O           9.4651   -7.5884    0.0000 O.3     1  UNL1       -0.3378
      6 O          13.5227    5.7550    0.0000 O.3     1  UNL1       -0.3484
      7 O           7.7331   -8.5884    0.0000 O.3     1  UNL1       -0.3864
      8 O           6.0010   -7.5884    0.0000 O.3     1  UNL1       -0.3402
      9 O           6.0010   -4.5884    0.0000 O.3     1  UNL1       -0.3461
     10 O          10.3312   -6.0884    0.0000 O.3     1  UNL1       -0.3405
     11 O          15.0202    6.6255    0.0000 O.3     1  UNL1       -0.3405
     12 O           5.1350   -6.0884    0.0000 O.3     1  UNL1       -0.3461
     13 O          11.1972   -8.5884    0.0000 O.3     1  UNL1       -0.3841
     14 O          14.5279    4.0260    0.0000 O.3     1  UNL1       -0.3841
     15 O          12.9292   -7.5884    0.0000 O.3     1  UNL1       -0.3864
     16 O          16.5279    4.0319    0.0000 O.3     1  UNL1       -0.3864
     17 O           4.2690   -4.5884    0.0000 O.3     1  UNL1       -0.3431
     18 O           4.2690   -8.5884    0.0000 O.3     1  UNL1       -0.3841
     19 O          12.9292   -5.5884    0.0000 O.3     1  UNL1       -0.3865
     20 O          17.5227    5.7670    0.0000 O.3     1  UNL1       -0.3865
     21 O           2.5369   -7.5884    0.0000 O.3     1  UNL1       -0.3864
     22 O           6.0010   -2.5884    0.0000 O.3     1  UNL1       -0.3841
     23 O          12.0632   -4.0884    0.0000 O.3     1  UNL1       -0.3924
     24 O           2.5369   -5.5884    0.0000 O.3     1  UNL1       -0.3869
     25 O          16.0150    8.3605    0.0000 O.3     1  UNL1       -0.3924
     26 O           4.2690   -1.5884    0.0000 O.3     1  UNL1       -0.3864
     27 O           2.5369   -2.5884    0.0000 O.3     1  UNL1       -0.3866
     28 C           9.4944    0.6085    0.0000 C.3     1  UNL1       -0.0233
     29 C          10.3623    0.1118    0.0000 C.3     1  UNL1       -0.0298
     30 C          10.3662   -0.8882    0.0000 C.3     1  UNL1       -0.0343
     31 C           9.6999    1.5811    0.0000 C.3     1  UNL1       -0.0015
     32 C           9.5021   -1.3915    0.0000 C.3     1  UNL1       -0.0323
     33 C           9.4901   -2.4331    0.0000 C.3     1  UNL1       -0.0260
     34 C          10.6882    1.6880    0.0000 C.3     1  UNL1        0.0660
     35 C          11.0968    0.7817    0.0000 C.3     1  UNL1       -0.0226
     36 C           8.6303    0.1051    0.0000 C.3     1  UNL1       -0.0467
     37 C           8.6342   -0.8949    0.0000 C.3     1  UNL1       -0.0489
     38 C          10.3901   -2.9574    0.0000 C.3     1  UNL1       -0.0330
     39 C           9.2976    2.4837    0.0000 C.3     1  UNL1        0.0158
     40 C          11.2781   -1.3915    0.0000 C.3     1  UNL1       -0.0494
     41 C          11.2902   -2.4331    0.0000 C.3     1  UNL1       -0.0494
     42 C           8.6264    1.1051    0.0000 C.3     1  UNL1       -0.0590
     43 C          10.0305    3.1465    0.0000 C.3     1  UNL1        0.1704
     44 C           8.5402   -2.9574    0.0000 C.3     1  UNL1       -0.0448
     45 C          10.4027   -4.0423    0.0000 C.3     1  UNL1       -0.0232
     46 C           8.6260   -1.9297    0.0000 C.3     1  UNL1       -0.0590
     47 C           8.5276   -4.0423    0.0000 C.3     1  UNL1       -0.0260
     48 C           9.4651   -4.5884    0.0000 C.3     1  UNL1        0.0621
     49 C           8.3192    2.6904    0.0000 C.3     1  UNL1       -0.0572
     50 C          10.5279    4.0140    0.0000 C.3     1  UNL1        0.0018
     51 C          11.5279    4.0170    0.0000 C.3     1  UNL1       -0.0435
     52 C          12.0253    4.8845    0.0000 C.3     1  UNL1       -0.0201
     53 C           8.5991   -6.0884    0.0000 C.3     1  UNL1        0.1886
     54 C           8.5991   -7.0884    0.0000 C.3     1  UNL1        0.1406
     55 C          13.0253    4.8875    0.0000 C.3     1  UNL1        0.0533
     56 C          11.5228    5.7490    0.0000 C.3     1  UNL1       -0.0603
     57 C           7.7331   -7.5884    0.0000 C.3     1  UNL1        0.1148
     58 C           6.8671   -6.0884    0.0000 C.3     1  UNL1        0.1137
     59 C           6.8671   -7.0884    0.0000 C.3     1  UNL1        0.1184
     60 C           6.0010   -5.5884    0.0000 C.3     1  UNL1        0.0796
     61 C          10.3312   -7.0884    0.0000 C.3     1  UNL1        0.1885
     62 C          14.5227    5.7580    0.0000 C.3     1  UNL1        0.1879
     63 C          11.1972   -7.5884    0.0000 C.3     1  UNL1        0.1341
     64 C          15.0253    4.8935    0.0000 C.3     1  UNL1        0.1341
     65 C           5.1350   -7.0884    0.0000 C.3     1  UNL1        0.1880
     66 C          12.0632   -7.0884    0.0000 C.3     1  UNL1        0.1141
     67 C          16.0253    4.8965    0.0000 C.3     1  UNL1        0.1141
     68 C          11.1972   -5.5884    0.0000 C.3     1  UNL1        0.1130
     69 C           4.2690   -7.5884    0.0000 C.3     1  UNL1        0.1341
     70 C          12.0632   -6.0884    0.0000 C.3     1  UNL1        0.1119
     71 C          16.0201    6.6285    0.0000 C.3     1  UNL1        0.1130
     72 C           5.1350   -4.0884    0.0000 C.3     1  UNL1        0.1879
     73 C          16.5227    5.7640    0.0000 C.3     1  UNL1        0.1119
     74 C           3.4030   -7.0884    0.0000 C.3     1  UNL1        0.1137
     75 C           5.1350   -3.0884    0.0000 C.3     1  UNL1        0.1341
     76 C          11.1972   -4.5884    0.0000 C.3     1  UNL1        0.0730
     77 C           4.2690   -5.5884    0.0000 C.3     1  UNL1        0.0792
     78 C           3.4030   -6.0884    0.0000 C.3     1  UNL1        0.1069
     79 C          16.5176    7.4960    0.0000 C.3     1  UNL1        0.0730
     80 C           4.2690   -2.5884    0.0000 C.3     1  UNL1        0.1140
     81 C           3.4030   -4.0884    0.0000 C.3     1  UNL1        0.0873
     82 C           3.4030   -3.0884    0.0000 C.3     1  UNL1        0.1095
     83 C           2.5369   -4.5884    0.0000 C.3     1  UNL1       -0.0361
     84 H          11.1406   -0.2299    0.0000 H       1  UNL1        0.0310
     85 H          11.0974   -0.4547    0.0000 H       1  UNL1        0.0306
     86 H           8.8546    1.4915    0.0000 H       1  UNL1        0.0335
     87 H          10.2366   -1.8194    0.0000 H       1  UNL1        0.0309
     88 H          11.5330    1.7812    0.0000 H       1  UNL1        0.0600
     89 H          11.4642    0.2823    0.0000 H       1  UNL1        0.0293
     90 H          11.6321    1.0946    0.0000 H       1  UNL1        0.0293
     91 H           8.4160    0.6869    0.0000 H       1  UNL1        0.0271
     92 H           8.0201   -0.0049    0.0000 H       1  UNL1        0.0271
     93 H           8.0232   -0.7895    0.0000 H       1  UNL1        0.0268
     94 H           8.4244   -1.4783    0.0000 H       1  UNL1        0.0268
     95 H          11.1295   -3.3767    0.0000 H       1  UNL1        0.0307
     96 H           8.7632    1.8227    0.0000 H       1  UNL1        0.0354
     97 H          11.8902   -1.4905    0.0000 H       1  UNL1        0.0268
     98 H          11.4804   -0.8054    0.0000 H       1  UNL1        0.0268
     99 H          11.5060   -3.0143    0.0000 H       1  UNL1        0.0268
    100 H          11.8998   -2.3199    0.0000 H       1  UNL1        0.0268
    101 H           8.9344    1.6433    0.0000 H       1  UNL1        0.0235
    102 H           8.0883    1.4131    0.0000 H       1  UNL1        0.0235
    103 H           8.3185    0.5670    0.0000 H       1  UNL1        0.0235
    104 H           8.3379   -2.3713    0.0000 H       1  UNL1        0.0271
    105 H           7.9281   -3.0564    0.0000 H       1  UNL1        0.0271
    106 H          10.6185   -4.6235    0.0000 H       1  UNL1        0.0293
    107 H          11.0123   -3.9291    0.0000 H       1  UNL1        0.0293
    108 H           8.9380   -1.3940    0.0000 H       1  UNL1        0.0235
    109 H           8.0902   -1.6177    0.0000 H       1  UNL1        0.0235
    110 H           8.3139   -2.4655    0.0000 H       1  UNL1        0.0235
    111 H           7.9180   -3.9291    0.0000 H       1  UNL1        0.0290
    112 H           8.3118   -4.6235    0.0000 H       1  UNL1        0.0290
    113 H          10.2021   -5.0120    0.0000 H       1  UNL1        0.0597
    114 H           8.4473    3.2970    0.0000 H       1  UNL1        0.0234
    115 H           7.7125    2.8185    0.0000 H       1  UNL1        0.0234
    116 H           8.1910    2.0838    0.0000 H       1  UNL1        0.0234
    117 H          10.6338    4.6249    0.0000 H       1  UNL1        0.0317
    118 H           9.9447    4.2243    0.0000 H       1  UNL1        0.0317
    119 H           9.5490    4.4778    0.0000 H       1  UNL1        0.2128
    120 H          11.4221    3.4061    0.0000 H       1  UNL1        0.0270
    121 H          12.1112    3.8067    0.0000 H       1  UNL1        0.0270
    122 H          11.1753    4.8820    0.0000 H       1  UNL1        0.0320
    123 H           8.5991   -5.2384    0.0000 H       1  UNL1        0.0938
    124 H           8.5991   -7.9384    0.0000 H       1  UNL1        0.0675
    125 H          12.9195    4.2766    0.0000 H       1  UNL1        0.0563
    126 H          13.6086    4.6772    0.0000 H       1  UNL1        0.0563
    127 H          12.0588    6.0606    0.0000 H       1  UNL1        0.0233
    128 H          11.2112    6.2850    0.0000 H       1  UNL1        0.0233
    129 H          10.9868    5.4374    0.0000 H       1  UNL1        0.0233
    130 H           6.9970   -8.0134    0.0000 H       1  UNL1        0.0648
    131 H           6.8671   -5.2384    0.0000 H       1  UNL1        0.0647
    132 H           6.1309   -6.6634    0.0000 H       1  UNL1        0.0651
    133 H           5.3905   -5.4807    0.0000 H       1  UNL1        0.0587
    134 H           5.7890   -6.1710    0.0000 H       1  UNL1        0.0587
    135 H           9.5950   -6.6634    0.0000 H       1  UNL1        0.0938
    136 H           7.1962   -8.8984    0.0000 H       1  UNL1        0.2100
    137 H          14.0955    6.4928    0.0000 H       1  UNL1        0.0937
    138 H          11.9333   -8.0134    0.0000 H       1  UNL1        0.0671
    139 H          14.1753    4.8909    0.0000 H       1  UNL1        0.0671
    140 H           5.1350   -7.9384    0.0000 H       1  UNL1        0.0937
    141 H          12.7993   -6.6634    0.0000 H       1  UNL1        0.0648
    142 H          15.6025    4.1591    0.0000 H       1  UNL1        0.0648
    143 H          10.4611   -5.1634    0.0000 H       1  UNL1        0.0647
    144 H           3.5329   -8.0134    0.0000 H       1  UNL1        0.0671
    145 H          12.0632   -5.2384    0.0000 H       1  UNL1        0.0647
    146 H          15.5930    7.3634    0.0000 H       1  UNL1        0.0647
    147 H           5.1350   -4.9384    0.0000 H       1  UNL1        0.0937
    148 H          16.9499    5.0291    0.0000 H       1  UNL1        0.0647
    149 H          11.7341   -8.8984    0.0000 H       1  UNL1        0.2101
    150 H           2.6668   -6.6634    0.0000 H       1  UNL1        0.0647
    151 H          14.8395    3.4899    0.0000 H       1  UNL1        0.2101
    152 H           5.1350   -2.2384    0.0000 H       1  UNL1        0.0671
    153 H          10.9851   -4.0058    0.0000 H       1  UNL1        0.0584
    154 H          10.5866   -4.6961    0.0000 H       1  UNL1        0.0584
    155 H           4.6675   -5.1134    0.0000 H       1  UNL1        0.0587
    156 H           3.8705   -5.1134    0.0000 H       1  UNL1        0.0587
    157 H           3.4030   -5.2384    0.0000 H       1  UNL1        0.0643
    158 H          16.9937    7.0989    0.0000 H       1  UNL1        0.0584
    159 H          16.9913    7.8960    0.0000 H       1  UNL1        0.0584
    160 H          12.9292   -8.2084    0.0000 H       1  UNL1        0.2100
    161 H          17.1479    4.0338    0.0000 H       1  UNL1        0.2100
    162 H           3.7320   -8.8984    0.0000 H       1  UNL1        0.2101
    163 H          13.4662   -5.8984    0.0000 H       1  UNL1        0.2100
    164 H           3.5329   -2.1634    0.0000 H       1  UNL1        0.0648
    165 H          17.8311    6.3048    0.0000 H       1  UNL1        0.2100
    166 H           3.4030   -4.9384    0.0000 H       1  UNL1        0.0621
    167 H           4.1391   -3.5134    0.0000 H       1  UNL1        0.0646
    168 H           2.0000   -7.2784    0.0000 H       1  UNL1        0.2100
    169 H           6.0010   -1.9684    0.0000 H       1  UNL1        0.2101
    170 H          12.6002   -4.3984    0.0000 H       1  UNL1        0.2095
    171 H           2.0000   -5.8984    0.0000 H       1  UNL1        0.2100
    172 H          16.3234    8.8984    0.0000 H       1  UNL1        0.2095
    173 H           2.2269   -4.0515    0.0000 H       1  UNL1        0.0255
    174 H           2.0000   -4.8984    0.0000 H       1  UNL1        0.0255
    175 H           2.8469   -5.1253    0.0000 H       1  UNL1        0.0255
    176 H           3.7320   -1.2784    0.0000 H       1  UNL1        0.2100
    177 H           2.0000   -2.8984    0.0000 H       1  UNL1        0.2100
@<TRIPOS>BOND
     1     1    34    1
     2     1    43    1
     3     2    43    1
     4     2   119    1
     5     3    48    1
     6     3    53    1
     7     4    53    1
     8     4    58    1
     9     5    54    1
    10     5    61    1
    11     6    55    1
    12     6    62    1
    13     7    57    1
    14     7   136    1
    15     8    59    1
    16     8    65    1
    17     9    60    1
    18     9    72    1
    19    10    61    1
    20    10    68    1
    21    11    62    1
    22    11    71    1
    23    12    65    1
    24    12    77    1
    25    13    63    1
    26    13   149    1
    27    14    64    1
    28    14   151    1
    29    15    66    1
    30    15   160    1
    31    16    67    1
    32    16   161    1
    33    17    72    1
    34    17    81    1
    35    18    69    1
    36    18   162    1
    37    19    70    1
    38    19   163    1
    39    20    73    1
    40    20   165    1
    41    21    74    1
    42    21   168    1
    43    22    75    1
    44    22   169    1
    45    23    76    1
    46    23   170    1
    47    24    78    1
    48    24   171    1
    49    25    79    1
    50    25   172    1
    51    26    80    1
    52    26   176    1
    53    27    82    1
    54    27   177    1
    55    28    29    1
    56    28    31    1
    57    28    36    1
    58    28    42    1
    59    29    30    1
    60    29    35    1
    61    29    84    1
    62    30    32    1
    63    30    40    1
    64    30    85    1
    65    31    34    1
    66    31    39    1
    67    31    86    1
    68    32    33    1
    69    32    37    1
    70    32    87    1
    71    33    38    1
    72    33    44    1
    73    33    46    1
    74    34    35    1
    75    34    88    1
    76    35    89    1
    77    35    90    1
    78    36    37    1
    79    36    91    1
    80    36    92    1
    81    37    93    1
    82    37    94    1
    83    38    41    1
    84    38    45    1
    85    38    95    1
    86    39    43    1
    87    39    49    1
    88    39    96    1
    89    40    41    1
    90    40    97    1
    91    40    98    1
    92    41    99    1
    93    41   100    1
    94    42   101    1
    95    42   102    1
    96    42   103    1
    97    43    50    1
    98    44    47    1
    99    44   104    1
   100    44   105    1
   101    45    48    1
   102    45   106    1
   103    45   107    1
   104    46   108    1
   105    46   109    1
   106    46   110    1
   107    47    48    1
   108    47   111    1
   109    47   112    1
   110    48   113    1
   111    49   114    1
   112    49   115    1
   113    49   116    1
   114    50    51    1
   115    50   117    1
   116    50   118    1
   117    51    52    1
   118    51   120    1
   119    51   121    1
   120    52    55    1
   121    52    56    1
   122    52   122    1
   123    53    54    1
   124    53   123    1
   125    54    57    1
   126    54   124    1
   127    55   125    1
   128    55   126    1
   129    56   127    1
   130    56   128    1
   131    56   129    1
   132    57    59    1
   133    57   130    1
   134    58    59    1
   135    58    60    1
   136    58   131    1
   137    59   132    1
   138    60   133    1
   139    60   134    1
   140    61    63    1
   141    61   135    1
   142    62    64    1
   143    62   137    1
   144    63    66    1
   145    63   138    1
   146    64    67    1
   147    64   139    1
   148    65    69    1
   149    65   140    1
   150    66    70    1
   151    66   141    1
   152    67    73    1
   153    67   142    1
   154    68    70    1
   155    68    76    1
   156    68   143    1
   157    69    74    1
   158    69   144    1
   159    70   145    1
   160    71    73    1
   161    71    79    1
   162    71   146    1
   163    72    75    1
   164    72   147    1
   165    73   148    1
   166    74    78    1
   167    74   150    1
   168    75    80    1
   169    75   152    1
   170    76   153    1
   171    76   154    1
   172    77    78    1
   173    77   155    1
   174    77   156    1
   175    78   157    1
   176    79   158    1
   177    79   159    1
   178    80    82    1
   179    80   164    1
   180    81    82    1
   181    81    83    1
   182    81   166    1
   183    82   167    1
   184    83   173    1
   185    83   174    1
   186    83   175    1
