@<TRIPOS>MOLECULE
IMPHY009547
 82 87 0 0 0
SMALL
GASTEIGER

@<TRIPOS>ATOM
      1 O          11.7293    1.7715    0.0000 O.3     1  UNL1       -0.3479
      2 O          11.3283    3.5283    0.0000 O.3     1  UNL1       -0.3642
      3 O           2.6188   -2.6576    0.0000 O.3     1  UNL1       -0.4802
      4 O           2.5093   -0.9290    0.0000 O.2     1  UNL1       -0.2504
      5 C           8.0134   -1.4342    0.0000 C.3     1  UNL1       -0.0231
      6 C           8.8353    0.2231    0.0000 C.3     1  UNL1       -0.0253
      7 C           8.9051   -0.8161    0.0000 C.3     1  UNL1       -0.0294
      8 C           7.0358   -0.9635    0.0000 C.3     1  UNL1       -0.0230
      9 C           9.7048    0.7966    0.0000 C.3     1  UNL1       -0.0270
     10 C          10.6058    0.3627    0.0000 C.3     1  UNL1        0.0050
     11 C           6.0923   -1.5856    0.0000 C.3     1  UNL1       -0.0287
     12 C           7.8689    0.7164    0.0000 C.3     1  UNL1       -0.0466
     13 C           6.9631    0.1191    0.0000 C.3     1  UNL1       -0.0463
     14 C           6.1681   -2.7133    0.0000 C.3     1  UNL1       -0.0286
     15 C           9.8436   -1.2681    0.0000 C.3     1  UNL1       -0.0486
     16 C           8.1152   -2.5598    0.0000 C.3     1  UNL1       -0.0463
     17 C          10.6997   -0.6747    0.0000 C.3     1  UNL1       -0.0443
     18 C          10.4990    1.5395    0.0000 C.3     1  UNL1        0.0181
     19 C           7.1864   -3.2036    0.0000 C.3     1  UNL1       -0.0468
     20 C           9.4823    1.7715    0.0000 C.3     1  UNL1       -0.0442
     21 C          11.1058    2.5533    0.0000 C.3     1  UNL1        0.1703
     22 C          11.5068    0.7966    0.0000 C.3     1  UNL1        0.0572
     23 C           8.9144   -1.8681    0.0000 C.3     1  UNL1       -0.0588
     24 C           5.0438   -1.0505    0.0000 C.3     1  UNL1       -0.0337
     25 C           8.4310    1.1378    0.0000 C.3     1  UNL1       -0.0590
     26 C           6.1349   -0.5296    0.0000 C.3     1  UNL1       -0.0588
     27 C          10.1058    2.5533    0.0000 C.3     1  UNL1        0.0018
     28 C           5.2006   -3.3839    0.0000 C.3     1  UNL1       -0.0464
     29 C           4.0610   -1.6986    0.0000 C.3     1  UNL1        0.0651
     30 C           4.1400   -2.8731    0.0000 C.3     1  UNL1       -0.0370
     31 C           6.2352   -3.7110    0.0000 C.3     1  UNL1       -0.0593
     32 C           9.6560    2.3217    0.0000 C.3     1  UNL1       -0.0569
     33 C           3.5073   -0.8659    0.0000 C.3     1  UNL1       -0.0494
     34 C           3.0630   -1.7618    0.0000 C.2     1  UNL1        0.3107
     35 H           8.9719   -1.6635    0.0000 H       1  UNL1        0.0312
     36 H           8.9390    1.1654    0.0000 H       1  UNL1        0.0312
     37 H           6.0452   -0.7370    0.0000 H       1  UNL1        0.0312
     38 H           8.2411    1.2122    0.0000 H       1  UNL1        0.0271
     39 H           7.4440    1.1679    0.0000 H       1  UNL1        0.0271
     40 H           6.7154    0.6874    0.0000 H       1  UNL1        0.0271
     41 H           6.3607   -0.0277    0.0000 H       1  UNL1        0.0271
     42 H           9.4830   -1.7724    0.0000 H       1  UNL1        0.0268
     43 H          10.2788   -1.7097    0.0000 H       1  UNL1        0.0268
     44 H           8.3760   -3.1223    0.0000 H       1  UNL1        0.0271
     45 H           8.7140   -2.3991    0.0000 H       1  UNL1        0.0271
     46 H          10.9605   -1.2372    0.0000 H       1  UNL1        0.0272
     47 H          11.2985   -0.5140    0.0000 H       1  UNL1        0.0272
     48 H           9.9425    1.2661    0.0000 H       1  UNL1        0.0356
     49 H           6.8257   -3.7080    0.0000 H       1  UNL1        0.0271
     50 H           7.6215   -3.6452    0.0000 H       1  UNL1        0.0271
     51 H           9.0958    2.2562    0.0000 H       1  UNL1        0.0270
     52 H           8.9237    1.5025    0.0000 H       1  UNL1        0.0270
     53 H          11.6448    0.1921    0.0000 H       1  UNL1        0.0566
     54 H          12.1268    0.7966    0.0000 H       1  UNL1        0.0566
     55 H           8.6453   -2.4267    0.0000 H       1  UNL1        0.0235
     56 H           9.4730   -2.1371    0.0000 H       1  UNL1        0.0235
     57 H           9.1834   -1.3095    0.0000 H       1  UNL1        0.0235
     58 H           5.4160   -0.5546    0.0000 H       1  UNL1        0.0279
     59 H           4.6190   -0.5989    0.0000 H       1  UNL1        0.0279
     60 H           8.9981    1.3884    0.0000 H       1  UNL1        0.0235
     61 H           8.1804    1.7049    0.0000 H       1  UNL1        0.0235
     62 H           7.8639    0.8872    0.0000 H       1  UNL1        0.0235
     63 H           6.4039    0.0290    0.0000 H       1  UNL1        0.0235
     64 H           5.5763   -0.2606    0.0000 H       1  UNL1        0.0235
     65 H           5.8658   -1.0882    0.0000 H       1  UNL1        0.0235
     66 H          10.2438    3.1578    0.0000 H       1  UNL1        0.0317
     67 H           9.5472    2.8224    0.0000 H       1  UNL1        0.0317
     68 H           4.8400   -3.8882    0.0000 H       1  UNL1        0.0271
     69 H           5.6358   -3.8255    0.0000 H       1  UNL1        0.0271
     70 H           3.5234   -2.8082    0.0000 H       1  UNL1        0.0276
     71 H           3.9705   -3.4695    0.0000 H       1  UNL1        0.0276
     72 H           5.6165   -3.7526    0.0000 H       1  UNL1        0.0235
     73 H           6.2767   -4.3296    0.0000 H       1  UNL1        0.0235
     74 H           6.8538   -3.6694    0.0000 H       1  UNL1        0.0235
     75 H          10.0777    2.7762    0.0000 H       1  UNL1        0.0234
     76 H           9.2015    2.7434    0.0000 H       1  UNL1        0.0234
     77 H           9.2343    1.8672    0.0000 H       1  UNL1        0.0234
     78 H          11.9208    3.7110    0.0000 H       1  UNL1        0.2128
     79 H           4.0236   -0.5225    0.0000 H       1  UNL1        0.0240
     80 H           3.1640   -0.3496    0.0000 H       1  UNL1        0.0240
     81 H           2.9910   -1.2092    0.0000 H       1  UNL1        0.0240
     82 H           2.0000   -2.6968    0.0000 H       1  UNL1        0.2951
@<TRIPOS>BOND
     1     1    21    1
     2     1    22    1
     3    21     2    1
     4     2    78    1
     5     3    34    1
     6     3    82    1
     7     4    34    2
     8     5     7    1
     9     5     8    1
    10     5    16    1
    11     5    23    1
    12     6     7    1
    13     6     9    1
    14     6    12    1
    15     6    25    1
    16     7    15    1
    17     7    35    1
    18     8    11    1
    19     8    13    1
    20     8    26    1
    21     9    10    1
    22     9    20    1
    23     9    36    1
    24    10    17    1
    25    10    18    1
    26    10    22    1
    27    11    14    1
    28    11    24    1
    29    11    37    1
    30    12    13    1
    31    12    38    1
    32    12    39    1
    33    13    40    1
    34    13    41    1
    35    14    19    1
    36    14    28    1
    37    14    31    1
    38    15    17    1
    39    15    42    1
    40    15    43    1
    41    16    19    1
    42    16    44    1
    43    16    45    1
    44    17    46    1
    45    17    47    1
    46    18    21    1
    47    18    32    1
    48    18    48    1
    49    19    49    1
    50    19    50    1
    51    20    27    1
    52    20    51    1
    53    20    52    1
    54    21    27    1
    55    22    53    1
    56    22    54    1
    57    23    55    1
    58    23    56    1
    59    23    57    1
    60    24    29    1
    61    24    58    1
    62    24    59    1
    63    25    60    1
    64    25    61    1
    65    25    62    1
    66    26    63    1
    67    26    64    1
    68    26    65    1
    69    27    66    1
    70    27    67    1
    71    28    30    1
    72    28    68    1
    73    28    69    1
    74    29    30    1
    75    29    33    1
    76    29    34    1
    77    30    70    1
    78    30    71    1
    79    31    72    1
    80    31    73    1
    81    31    74    1
    82    32    75    1
    83    32    76    1
    84    32    77    1
    85    33    79    1
    86    33    80    1
    87    33    81    1
