@<TRIPOS>MOLECULE
IMPHY009059
 47 49 0 0 0
SMALL
GASTEIGER

@<TRIPOS>ATOM
      1 CL          8.0622   -0.0981    0.0000 Cl      1  UNL1       -0.1142
      2 O           5.8301    0.7679    0.0000 O.3     1  UNL1       -0.3807
      3 O           4.5981   -0.0981    0.0000 O.3     1  UNL1       -0.3847
      4 O           4.5981   -2.0981    0.0000 O.3     1  UNL1       -0.4510
      5 O           6.3301    1.6340    0.0000 O.3     1  UNL1       -0.4581
      6 O           5.4641   -3.5981    0.0000 O.2     1  UNL1       -0.2449
      7 O           7.8301    2.5000    0.0000 O.2     1  UNL1       -0.2450
      8 C           6.3301   -0.0981    0.0000 C.3     1  UNL1        0.1488
      9 C           5.4641   -0.5981    0.0000 C.3     1  UNL1        0.1291
     10 C           7.1962   -0.5981    0.0000 C.3     1  UNL1        0.0866
     11 C           5.4641   -1.5981    0.0000 C.3     1  UNL1        0.1502
     12 C           6.8301    0.7679    0.0000 C.3     1  UNL1        0.1257
     13 C           7.1962   -1.5981    0.0000 C.2     1  UNL1       -0.0640
     14 C           6.3301   -2.0981    0.0000 C.2     1  UNL1       -0.0438
     15 C           4.5981   -3.0981    0.0000 C.2     1  UNL1        0.3398
     16 C           6.8301    2.5000    0.0000 C.2     1  UNL1        0.3393
     17 C           3.7320   -3.5981    0.0000 C.ar    1  UNL1        0.0590
     18 C           6.3301    3.3660    0.0000 C.ar    1  UNL1        0.0590
     19 C           2.8660   -3.0981    0.0000 C.ar    1  UNL1       -0.0478
     20 C           3.7320   -4.5981    0.0000 C.ar    1  UNL1       -0.0478
     21 C           6.8301    4.2320    0.0000 C.ar    1  UNL1       -0.0478
     22 C           5.3301    3.3660    0.0000 C.ar    1  UNL1       -0.0478
     23 C           2.0000   -3.5981    0.0000 C.ar    1  UNL1       -0.0610
     24 C           2.8660   -5.0981    0.0000 C.ar    1  UNL1       -0.0610
     25 C           6.3301    5.0981    0.0000 C.ar    1  UNL1       -0.0610
     26 C           4.8301    4.2320    0.0000 C.ar    1  UNL1       -0.0610
     27 C           2.0000   -4.5981    0.0000 C.ar    1  UNL1       -0.0617
     28 C           5.3301    5.0981    0.0000 C.ar    1  UNL1       -0.0617
     29 H           5.4641    0.0219    0.0000 H       1  UNL1        0.0664
     30 H           7.7331   -0.9081    0.0000 H       1  UNL1        0.0539
     31 H           5.4641   -2.2181    0.0000 H       1  UNL1        0.0807
     32 H           7.3051    0.3694    0.0000 H       1  UNL1        0.0728
     33 H           7.3051    1.1665    0.0000 H       1  UNL1        0.0728
     34 H           7.7331   -1.9081    0.0000 H       1  UNL1        0.0585
     35 H           6.3301   -2.7181    0.0000 H       1  UNL1        0.0607
     36 H           5.2101    0.7679    0.0000 H       1  UNL1        0.2105
     37 H           4.0611   -0.4081    0.0000 H       1  UNL1        0.2101
     38 H           2.8660   -2.4781    0.0000 H       1  UNL1        0.0626
     39 H           4.2690   -4.9081    0.0000 H       1  UNL1        0.0626
     40 H           7.4501    4.2320    0.0000 H       1  UNL1        0.0626
     41 H           5.0201    2.8291    0.0000 H       1  UNL1        0.0626
     42 H           1.4631   -3.2881    0.0000 H       1  UNL1        0.0618
     43 H           2.8660   -5.7181    0.0000 H       1  UNL1        0.0618
     44 H           6.6401    5.6350    0.0000 H       1  UNL1        0.0618
     45 H           4.2101    4.2320    0.0000 H       1  UNL1        0.0618
     46 H           1.4631   -4.9081    0.0000 H       1  UNL1        0.0618
     47 H           5.0201    5.6350    0.0000 H       1  UNL1        0.0618
@<TRIPOS>BOND
     1    10     1    1
     2     8     2    1
     3     2    36    1
     4     9     3    1
     5     3    37    1
     6    11     4    1
     7     4    15    1
     8     5    12    1
     9     5    16    1
    10     6    15    2
    11     7    16    2
    12     8     9    1
    13     8    10    1
    14     8    12    1
    15     9    11    1
    16     9    29    1
    17    10    13    1
    18    10    30    1
    19    11    14    1
    20    11    31    1
    21    12    32    1
    22    12    33    1
    23    13    14    2
    24    13    34    1
    25    14    35    1
    26    15    17    1
    27    16    18    1
    28    17    19   ar
    29    17    20   ar
    30    18    21   ar
    31    18    22   ar
    32    19    23   ar
    33    19    38    1
    34    20    24   ar
    35    20    39    1
    36    21    25   ar
    37    21    40    1
    38    22    26   ar
    39    22    41    1
    40    23    27   ar
    41    23    42    1
    42    24    27   ar
    43    24    43    1
    44    25    28   ar
    45    25    44    1
    46    26    28   ar
    47    26    45    1
    48    27    46    1
    49    28    47    1
