@<TRIPOS>MOLECULE
IMPHY016998
 21 21 0 0 0
SMALL
GASTEIGER

@<TRIPOS>ATOM
      1 O           4.5981    1.9400    0.0000 O.3     1  UNL1       -0.4771
      2 O           2.8660    1.9400    0.0000 O.2     1  UNL1       -0.2451
      3 C           2.8660   -0.0600    0.0000 C.ar    1  UNL1       -0.0362
      4 C           3.7320   -1.5600    0.0000 C.ar    1  UNL1       -0.0502
      5 C           3.7320    0.4400    0.0000 C.ar    1  UNL1        0.0617
      6 C           2.8660   -1.0600    0.0000 C.ar    1  UNL1       -0.0551
      7 C           4.5981   -1.0600    0.0000 C.ar    1  UNL1       -0.0580
      8 C           4.5981   -0.0600    0.0000 C.ar    1  UNL1       -0.0473
      9 C           2.0000    0.4400    0.0000 C.3     1  UNL1       -0.0389
     10 C           3.7320   -2.5600    0.0000 C.3     1  UNL1       -0.0397
     11 C           3.7320    1.4400    0.0000 C.2     1  UNL1        0.3371
     12 H           2.3291   -1.3700    0.0000 H       1  UNL1        0.0623
     13 H           5.1350   -1.3700    0.0000 H       1  UNL1        0.0620
     14 H           5.1350    0.2500    0.0000 H       1  UNL1        0.0626
     15 H           2.3100    0.9769    0.0000 H       1  UNL1        0.0278
     16 H           1.4631    0.7500    0.0000 H       1  UNL1        0.0278
     17 H           1.6900   -0.0969    0.0000 H       1  UNL1        0.0278
     18 H           3.1120   -2.5600    0.0000 H       1  UNL1        0.0278
     19 H           3.7320   -3.1800    0.0000 H       1  UNL1        0.0278
     20 H           4.3520   -2.5600    0.0000 H       1  UNL1        0.0278
     21 H           4.5981    2.5600    0.0000 H       1  UNL1        0.2954
@<TRIPOS>BOND
     1     1    11    1
     2     1    21    1
     3     2    11    2
     4     3     5   ar
     5     3     6   ar
     6     3     9    1
     7     4     6   ar
     8     4     7   ar
     9     4    10    1
    10     5     8   ar
    11     5    11    1
    12     6    12    1
    13     7     8   ar
    14     7    13    1
    15     8    14    1
    16     9    15    1
    17     9    16    1
    18     9    17    1
    19    10    18    1
    20    10    19    1
    21    10    20    1
