@<TRIPOS>MOLECULE
IMPHY011696
 31 31 0 0 0
SMALL
GASTEIGER

@<TRIPOS>ATOM
      1 O           3.7320   -0.0600    0.0000 O.3     1  UNL1       -0.4608
      2 O           2.0000   -0.0600    0.0000 O.2     1  UNL1       -0.2450
      3 C           4.5981    1.4400    0.0000 C.3     1  UNL1       -0.0003
      4 C           3.7320    0.9400    0.0000 C.3     1  UNL1        0.0962
      5 C           4.5981    2.4400    0.0000 C.2     1  UNL1       -0.0847
      6 C           6.3301    2.4400    0.0000 C.3     1  UNL1       -0.0376
      7 C           5.4641    2.9400    0.0000 C.2     1  UNL1       -0.0881
      8 C           2.8660   -1.5600    0.0000 C.ar    1  UNL1        0.0590
      9 C           2.8660   -0.5600    0.0000 C.2     1  UNL1        0.3392
     10 C           7.1962    2.9400    0.0000 C.3     1  UNL1       -0.0618
     11 C           2.0000   -2.0600    0.0000 C.ar    1  UNL1       -0.0478
     12 C           3.7320   -2.0600    0.0000 C.ar    1  UNL1       -0.0478
     13 C           2.0000   -3.0600    0.0000 C.ar    1  UNL1       -0.0610
     14 C           3.7320   -3.0600    0.0000 C.ar    1  UNL1       -0.0610
     15 C           2.8660   -3.5600    0.0000 C.ar    1  UNL1       -0.0617
     16 H           4.8101    0.8574    0.0000 H       1  UNL1        0.0340
     17 H           5.2087    1.5477    0.0000 H       1  UNL1        0.0340
     18 H           3.5200    1.5226    0.0000 H       1  UNL1        0.0700
     19 H           3.1215    0.8323    0.0000 H       1  UNL1        0.0700
     20 H           4.0611    2.7500    0.0000 H       1  UNL1        0.0570
     21 H           5.9316    1.9650    0.0000 H       1  UNL1        0.0305
     22 H           6.7287    1.9650    0.0000 H       1  UNL1        0.0305
     23 H           5.4641    3.5600    0.0000 H       1  UNL1        0.0569
     24 H           7.5062    2.4031    0.0000 H       1  UNL1        0.0233
     25 H           7.7331    3.2500    0.0000 H       1  UNL1        0.0233
     26 H           6.8862    3.4769    0.0000 H       1  UNL1        0.0233
     27 H           1.4631   -1.7500    0.0000 H       1  UNL1        0.0626
     28 H           4.2690   -1.7500    0.0000 H       1  UNL1        0.0626
     29 H           1.4631   -3.3700    0.0000 H       1  UNL1        0.0618
     30 H           4.2690   -3.3700    0.0000 H       1  UNL1        0.0618
     31 H           2.8660   -4.1800    0.0000 H       1  UNL1        0.0618
@<TRIPOS>BOND
     1     1     4    1
     2     1     9    1
     3     2     9    2
     4     3     4    1
     5     3     5    1
     6     3    16    1
     7     3    17    1
     8     4    18    1
     9     4    19    1
    10     5     7    2
    11     5    20    1
    12     6     7    1
    13     6    10    1
    14     6    21    1
    15     6    22    1
    16     7    23    1
    17     8     9    1
    18     8    11   ar
    19     8    12   ar
    20    10    24    1
    21    10    25    1
    22    10    26    1
    23    11    13   ar
    24    11    27    1
    25    12    14   ar
    26    12    28    1
    27    13    15   ar
    28    13    29    1
    29    14    15   ar
    30    14    30    1
    31    15    31    1
