@<TRIPOS>MOLECULE
IMPHY016908
 43 45 0 0 0
SMALL
GASTEIGER

@<TRIPOS>ATOM
      1 O           6.3580   -0.2699    0.0000 O.3     1  UNL1       -0.4828
      2 O           6.3465    2.7994    0.0000 O.2     1  UNL1       -0.2917
      3 O           4.5981    2.7648    0.0000 O.3     1  UNL1       -0.5027
      4 O           2.8660    1.7648    0.0000 O.3     1  UNL1       -0.4885
      5 O           2.8660   -0.2352    0.0000 O.3     1  UNL1       -0.4912
      6 O          10.7205   -1.7694    0.0000 O.3     1  UNL1       -0.4915
      7 O           8.9846   -2.7627    0.0000 O.3     1  UNL1       -0.5033
      8 C           7.2641    0.2440    0.0000 C.3     1  UNL1        0.1323
      9 C           7.2641    1.2856    0.0000 C.3     1  UNL1        0.0520
     10 C           5.4641    1.2648    0.0000 C.ar    1  UNL1        0.1043
     11 C           8.1282   -0.2594    0.0000 C.ar    1  UNL1       -0.0033
     12 C           6.3580    1.7994    0.0000 C.2     1  UNL1        0.1741
     13 C           5.4641    0.2648    0.0000 C.ar    1  UNL1        0.1391
     14 C           4.5981    1.7648    0.0000 C.ar    1  UNL1        0.1764
     15 C           4.5981   -0.2352    0.0000 C.ar    1  UNL1        0.0264
     16 C           8.1244   -1.2594    0.0000 C.ar    1  UNL1       -0.0098
     17 C           8.9962    0.2373    0.0000 C.ar    1  UNL1       -0.0514
     18 C           3.7320    1.2648    0.0000 C.ar    1  UNL1        0.2042
     19 C           3.7320    0.2648    0.0000 C.ar    1  UNL1        0.1687
     20 C           8.9884   -1.7627    0.0000 C.ar    1  UNL1        0.1588
     21 C           9.8602   -0.2661    0.0000 C.ar    1  UNL1       -0.0159
     22 C           9.8564   -1.2660    0.0000 C.ar    1  UNL1        0.1613
     23 C           2.0000    1.2648    0.0000 C.3     1  UNL1        0.0791
     24 C           2.8660   -1.2352    0.0000 C.3     1  UNL1        0.0790
     25 C          11.5884   -1.2727    0.0000 C.3     1  UNL1        0.0790
     26 H           7.2605   -0.3760    0.0000 H       1  UNL1        0.0789
     27 H           7.8750    1.1795    0.0000 H       1  UNL1        0.0385
     28 H           7.4732    1.8693    0.0000 H       1  UNL1        0.0385
     29 H           4.5981   -0.8552    0.0000 H       1  UNL1        0.0692
     30 H           7.5862   -1.5673    0.0000 H       1  UNL1        0.0659
     31 H           8.9985    0.8573    0.0000 H       1  UNL1        0.0623
     32 H          10.3984    0.0419    0.0000 H       1  UNL1        0.0655
     33 H           4.0611    3.0748    0.0000 H       1  UNL1        0.2923
     34 H           9.5203   -3.0748    0.0000 H       1  UNL1        0.2923
     35 H           1.6900    1.8017    0.0000 H       1  UNL1        0.0660
     36 H           1.4631    0.9548    0.0000 H       1  UNL1        0.0660
     37 H           2.3100    0.7278    0.0000 H       1  UNL1        0.0660
     38 H           2.2460   -1.2352    0.0000 H       1  UNL1        0.0660
     39 H           2.8660   -1.8552    0.0000 H       1  UNL1        0.0660
     40 H           3.4860   -1.2352    0.0000 H       1  UNL1        0.0660
     41 H          11.8964   -1.8108    0.0000 H       1  UNL1        0.0660
     42 H          12.1266   -0.9648    0.0000 H       1  UNL1        0.0660
     43 H          11.2805   -0.7346    0.0000 H       1  UNL1        0.0660
@<TRIPOS>BOND
     1     1     8    1
     2     1    13    1
     3     2    12    2
     4     3    14    1
     5     3    33    1
     6     4    18    1
     7     4    23    1
     8     5    19    1
     9     5    24    1
    10     6    22    1
    11     6    25    1
    12     7    20    1
    13     7    34    1
    14     8     9    1
    15     8    11    1
    16     8    26    1
    17     9    12    1
    18     9    27    1
    19     9    28    1
    20    10    12    1
    21    10    13   ar
    22    10    14   ar
    23    11    16   ar
    24    11    17   ar
    25    13    15   ar
    26    14    18   ar
    27    15    19   ar
    28    15    29    1
    29    16    20   ar
    30    16    30    1
    31    17    21   ar
    32    17    31    1
    33    18    19   ar
    34    20    22   ar
    35    21    22   ar
    36    21    32    1
    37    23    35    1
    38    23    36    1
    39    23    37    1
    40    24    38    1
    41    24    39    1
    42    24    40    1
    43    25    41    1
    44    25    42    1
    45    25    43    1
