@<TRIPOS>MOLECULE
IMPHY002611
 45 48 0 0 0
SMALL
GASTEIGER

@<TRIPOS>ATOM
      1 O          10.4366    0.1464    0.0000 O.3     1  UNL1       -0.4814
      2 O           6.9006    0.1743    0.0000 O.2     1  UNL1       -0.4538
      3 O           8.6605   -2.8604    0.0000 O.3     1  UNL1       -0.5058
      4 O           6.9121   -2.8950    0.0000 O.2     1  UNL1       -0.2869
      5 O           4.2740    2.6671    0.0000 O.3     1  UNL1       -0.4914
      6 O           2.5381    1.6738    0.0000 O.3     1  UNL1       -0.5033
      7 C          10.4446    1.1880    0.0000 C.3     1  UNL1        0.1235
      8 C           8.6605    0.1396    0.0000 C.ar    1  UNL1        0.0597
      9 C           9.5266   -0.3604    0.0000 C.ar    1  UNL1        0.1359
     10 C           9.5425    1.7089    0.0000 C.2     1  UNL1       -0.0408
     11 C           7.7945   -0.3604    0.0000 C.ar    1  UNL1        0.1534
     12 C           8.6445    1.1811    0.0000 C.2     1  UNL1       -0.0478
     13 C          10.9479    2.0521    0.0000 C.3     1  UNL1       -0.0215
     14 C          11.4446    1.1842    0.0000 C.3     1  UNL1       -0.0215
     15 C           7.7945   -1.3604    0.0000 C.ar    1  UNL1        0.1061
     16 C           9.5266   -1.3604    0.0000 C.ar    1  UNL1        0.0231
     17 C           8.6605   -1.8604    0.0000 C.ar    1  UNL1        0.1347
     18 C           6.9006   -1.8951    0.0000 C.ar    1  UNL1        0.1966
     19 C           5.9945   -0.3396    0.0000 C.ar    1  UNL1        0.1394
     20 C           5.9945   -1.3812    0.0000 C.ar    1  UNL1        0.0288
     21 C           5.1304    0.1637    0.0000 C.ar    1  UNL1        0.0211
     22 C           5.1343    1.1637    0.0000 C.ar    1  UNL1       -0.0057
     23 C           4.2625   -0.3329    0.0000 C.ar    1  UNL1       -0.0474
     24 C           4.2702    1.6671    0.0000 C.ar    1  UNL1        0.1619
     25 C           3.3984    0.1704    0.0000 C.ar    1  UNL1       -0.0159
     26 C           3.4022    1.1704    0.0000 C.ar    1  UNL1        0.1585
     27 C           3.4099    3.1704    0.0000 C.3     1  UNL1        0.0790
     28 H           9.5401    2.3288    0.0000 H       1  UNL1        0.0611
     29 H           8.1040    1.4849    0.0000 H       1  UNL1        0.0624
     30 H          11.4837    1.7401    0.0000 H       1  UNL1        0.0271
     31 H          11.2600    2.5879    0.0000 H       1  UNL1        0.0271
     32 H          10.4122    2.3642    0.0000 H       1  UNL1        0.0271
     33 H          11.4422    0.5642    0.0000 H       1  UNL1        0.0271
     34 H          12.0646    1.1818    0.0000 H       1  UNL1        0.0271
     35 H          11.4470    1.8042    0.0000 H       1  UNL1        0.0271
     36 H          10.0635   -1.6704    0.0000 H       1  UNL1        0.0691
     37 H           5.4588   -1.6933    0.0000 H       1  UNL1        0.0693
     38 H           5.6724    1.4717    0.0000 H       1  UNL1        0.0662
     39 H           4.2601   -0.9529    0.0000 H       1  UNL1        0.0626
     40 H           9.1975   -3.1704    0.0000 H       1  UNL1        0.2922
     41 H           2.8602   -0.1375    0.0000 H       1  UNL1        0.0655
     42 H           2.0000    1.3658    0.0000 H       1  UNL1        0.2923
     43 H           3.7220    3.7061    0.0000 H       1  UNL1        0.0660
     44 H           2.8742    3.4825    0.0000 H       1  UNL1        0.0660
     45 H           3.0979    2.6347    0.0000 H       1  UNL1        0.0660
@<TRIPOS>BOND
     1     1     7    1
     2     1     9    1
     3     2    11   ar
     4     2    19   ar
     5     3    17    1
     6     3    40    1
     7     4    18    2
     8     5    24    1
     9     5    27    1
    10     6    26    1
    11     6    42    1
    12     7    10    1
    13     7    13    1
    14     7    14    1
    15     8     9   ar
    16     8    11   ar
    17     8    12    1
    18     9    16   ar
    19    10    12    2
    20    10    28    1
    21    11    15   ar
    22    12    29    1
    23    13    30    1
    24    13    31    1
    25    13    32    1
    26    14    33    1
    27    14    34    1
    28    14    35    1
    29    15    17   ar
    30    15    18   ar
    31    16    17   ar
    32    16    36    1
    33    18    20   ar
    34    19    20   ar
    35    19    21    1
    36    20    37    1
    37    21    22   ar
    38    21    23   ar
    39    22    24   ar
    40    22    38    1
    41    23    25   ar
    42    23    39    1
    43    24    26   ar
    44    25    26   ar
    45    25    41    1
    46    27    43    1
    47    27    44    1
    48    27    45    1
