@<TRIPOS>MOLECULE
IMPHY015199
 36 35 0 0 0
SMALL
GASTEIGER

@<TRIPOS>ATOM
      1 O           6.3301   -0.2500    0.0000 O.3     1  UNL1       -0.3798
      2 C           8.9282    0.2500    0.0000 C.3     1  UNL1       -0.0510
      3 C           8.0622   -0.2500    0.0000 C.3     1  UNL1       -0.0295
      4 C           9.7942   -0.2500    0.0000 C.3     1  UNL1       -0.0532
      5 C           4.5981   -0.2500    0.0000 C.3     1  UNL1       -0.0295
      6 C           7.1962    0.2500    0.0000 C.3     1  UNL1        0.0477
      7 C           3.7320    0.2500    0.0000 C.3     1  UNL1       -0.0512
      8 C           5.4641    0.2500    0.0000 C.3     1  UNL1        0.0477
      9 C          10.6603    0.2500    0.0000 C.3     1  UNL1       -0.0559
     10 C           2.8660   -0.2500    0.0000 C.3     1  UNL1       -0.0558
     11 C          11.5263   -0.2500    0.0000 C.3     1  UNL1       -0.0653
     12 C           2.0000    0.2500    0.0000 C.3     1  UNL1       -0.0653
     13 H           9.3267    0.7249    0.0000 H       1  UNL1        0.0266
     14 H           8.5297    0.7249    0.0000 H       1  UNL1        0.0266
     15 H           7.6636   -0.7249    0.0000 H       1  UNL1        0.0287
     16 H           8.4607   -0.7249    0.0000 H       1  UNL1        0.0287
     17 H           9.3957   -0.7249    0.0000 H       1  UNL1        0.0265
     18 H          10.1928   -0.7249    0.0000 H       1  UNL1        0.0265
     19 H           4.1996   -0.7249    0.0000 H       1  UNL1        0.0287
     20 H           4.9966   -0.7249    0.0000 H       1  UNL1        0.0287
     21 H           7.5947    0.7249    0.0000 H       1  UNL1        0.0560
     22 H           6.7976    0.7249    0.0000 H       1  UNL1        0.0560
     23 H           4.1306    0.7249    0.0000 H       1  UNL1        0.0266
     24 H           3.3335    0.7249    0.0000 H       1  UNL1        0.0266
     25 H           5.8626    0.7249    0.0000 H       1  UNL1        0.0560
     26 H           5.0656    0.7249    0.0000 H       1  UNL1        0.0560
     27 H          11.0588    0.7249    0.0000 H       1  UNL1        0.0263
     28 H          10.2617    0.7249    0.0000 H       1  UNL1        0.0263
     29 H           2.4675   -0.7249    0.0000 H       1  UNL1        0.0263
     30 H           3.2646   -0.7249    0.0000 H       1  UNL1        0.0263
     31 H          11.2163   -0.7869    0.0000 H       1  UNL1        0.0230
     32 H          12.0632   -0.5600    0.0000 H       1  UNL1        0.0230
     33 H          11.8363    0.2869    0.0000 H       1  UNL1        0.0230
     34 H           2.3100    0.7869    0.0000 H       1  UNL1        0.0230
     35 H           1.4631    0.5600    0.0000 H       1  UNL1        0.0230
     36 H           1.6900   -0.2869    0.0000 H       1  UNL1        0.0230
@<TRIPOS>BOND
     1     1     6    1
     2     1     8    1
     3     2     3    1
     4     2     4    1
     5     2    13    1
     6     2    14    1
     7     3     6    1
     8     3    15    1
     9     3    16    1
    10     4     9    1
    11     4    17    1
    12     4    18    1
    13     5     7    1
    14     5     8    1
    15     5    19    1
    16     5    20    1
    17     6    21    1
    18     6    22    1
    19     7    10    1
    20     7    23    1
    21     7    24    1
    22     8    25    1
    23     8    26    1
    24     9    11    1
    25     9    27    1
    26     9    28    1
    27    10    12    1
    28    10    29    1
    29    10    30    1
    30    11    31    1
    31    11    32    1
    32    11    33    1
    33    12    34    1
    34    12    35    1
    35    12    36    1
