@<TRIPOS>MOLECULE
IMPHY016152
 26 26 0 0 0
SMALL
GASTEIGER

@<TRIPOS>ATOM
      1 O           2.0000    0.3450    0.0000 O.3     1  UNL1       -0.3872
      2 O           4.5981    2.8450    0.0000 O.3     1  UNL1       -0.3950
      3 C           3.7320    0.3450    0.0000 C.3     1  UNL1       -0.0206
      4 C           2.8660   -0.1550    0.0000 C.3     1  UNL1        0.0802
      5 C           3.7320    1.3450    0.0000 C.3     1  UNL1       -0.0271
      6 C           2.8660   -1.1550    0.0000 C.ar    1  UNL1       -0.0192
      7 C           4.5981    1.8450    0.0000 C.3     1  UNL1        0.0443
      8 C           2.0000   -1.6550    0.0000 C.ar    1  UNL1       -0.0561
      9 C           3.7320   -1.6550    0.0000 C.ar    1  UNL1       -0.0561
     10 C           2.0000   -2.6550    0.0000 C.ar    1  UNL1       -0.0614
     11 C           3.7320   -2.6550    0.0000 C.ar    1  UNL1       -0.0614
     12 C           2.8660   -3.1550    0.0000 C.ar    1  UNL1       -0.0617
     13 H           3.9441   -0.2376    0.0000 H       1  UNL1        0.0294
     14 H           4.3426    0.4527    0.0000 H       1  UNL1        0.0294
     15 H           2.8660    0.4650    0.0000 H       1  UNL1        0.0643
     16 H           3.5200    1.9276    0.0000 H       1  UNL1        0.0288
     17 H           3.1215    1.2373    0.0000 H       1  UNL1        0.0288
     18 H           4.8101    1.2624    0.0000 H       1  UNL1        0.0557
     19 H           5.2087    1.9527    0.0000 H       1  UNL1        0.0557
     20 H           1.4631   -1.3450    0.0000 H       1  UNL1        0.0621
     21 H           4.2690   -1.3450    0.0000 H       1  UNL1        0.0621
     22 H           2.0000    0.9650    0.0000 H       1  UNL1        0.2102
     23 H           1.4631   -2.9650    0.0000 H       1  UNL1        0.0618
     24 H           4.2690   -2.9650    0.0000 H       1  UNL1        0.0618
     25 H           2.8660   -3.7750    0.0000 H       1  UNL1        0.0618
     26 H           5.1350    3.1550    0.0000 H       1  UNL1        0.2094
@<TRIPOS>BOND
     1     1     4    1
     2     1    22    1
     3     2     7    1
     4     2    26    1
     5     3     4    1
     6     3     5    1
     7     3    13    1
     8     3    14    1
     9     4     6    1
    10     4    15    1
    11     5     7    1
    12     5    16    1
    13     5    17    1
    14     6     8   ar
    15     6     9   ar
    16     7    18    1
    17     7    19    1
    18     8    10   ar
    19     8    20    1
    20     9    11   ar
    21     9    21    1
    22    10    12   ar
    23    10    23    1
    24    11    12   ar
    25    11    24    1
    26    12    25    1
