@<TRIPOS>MOLECULE
IMPHY002296
 54 55 0 0 0
SMALL
GASTEIGER

@<TRIPOS>ATOM
      1 O           5.1981   -2.9520    0.0000 O.3     1  UNL1       -0.3872
      2 O           4.6208    0.6436    0.0000 O.3     1  UNL1       -0.4528
      3 O           6.4387    0.3095    0.0000 O.2     1  UNL1       -0.2966
      4 O           2.9303    1.0206    0.0000 O.2     1  UNL1       -0.2453
      5 C           5.1931   -1.9520    0.0000 C.3     1  UNL1        0.0855
      6 C           5.1881   -0.9520    0.0000 C.3     1  UNL1        0.0954
      7 C           6.1408   -2.2520    0.0000 C.3     1  UNL1       -0.0021
      8 C           6.7204   -1.4444    0.0000 C.3     1  UNL1        0.0123
      9 C           4.4144   -2.5794    0.0000 C.3     1  UNL1       -0.0190
     10 C           6.1328   -0.6426    0.0000 C.2     1  UNL1        0.1462
     11 C           4.4032   -0.3325    0.0000 C.3     1  UNL1        0.1365
     12 C           6.4562   -3.2010    0.0000 C.3     1  UNL1       -0.0409
     13 C           5.1831    0.0479    0.0000 C.3     1  UNL1       -0.0464
     14 C           3.4384   -2.3618    0.0000 C.3     1  UNL1       -0.0293
     15 C           3.4294   -0.5598    0.0000 C.2     1  UNL1       -0.0439
     16 C           3.0000   -1.4630    0.0000 C.2     1  UNL1       -0.0730
     17 C           7.4357   -3.4023    0.0000 C.3     1  UNL1       -0.0623
     18 C           5.7921   -3.9486    0.0000 C.3     1  UNL1       -0.0623
     19 C           2.0000   -1.4680    0.0000 C.3     1  UNL1       -0.0437
     20 C           3.8844    1.3201    0.0000 C.2     1  UNL1        0.3352
     21 C           4.1021    2.2961    0.0000 C.2     1  UNL1        0.0294
     22 C           5.0562    2.5956    0.0000 C.3     1  UNL1       -0.0333
     23 C           3.3656    2.9726    0.0000 C.2     1  UNL1       -0.0774
     24 C           3.5833    3.9486    0.0000 C.3     1  UNL1       -0.0461
     25 H           6.7538   -2.3452    0.0000 H       1  UNL1        0.0335
     26 H           7.1833   -1.8568    0.0000 H       1  UNL1        0.0345
     27 H           7.1792   -1.0274    0.0000 H       1  UNL1        0.0345
     28 H           4.1482   -3.1394    0.0000 H       1  UNL1        0.0296
     29 H           4.9010   -2.9636    0.0000 H       1  UNL1        0.0296
     30 H           3.9626    0.1037    0.0000 H       1  UNL1        0.0790
     31 H           5.8489   -3.0762    0.0000 H       1  UNL1        0.0299
     32 H           5.8031    0.0510    0.0000 H       1  UNL1        0.0241
     33 H           5.1800    0.6679    0.0000 H       1  UNL1        0.0241
     34 H           4.5631    0.0448    0.0000 H       1  UNL1        0.0241
     35 H           2.8346   -2.5027    0.0000 H       1  UNL1        0.0311
     36 H           3.4414   -2.9818    0.0000 H       1  UNL1        0.0311
     37 H           4.6627   -3.2647    0.0000 H       1  UNL1        0.2102
     38 H           3.0404   -0.0770    0.0000 H       1  UNL1        0.0608
     39 H           7.3109   -4.0096    0.0000 H       1  UNL1        0.0232
     40 H           8.0430   -3.5272    0.0000 H       1  UNL1        0.0232
     41 H           7.5606   -2.7950    0.0000 H       1  UNL1        0.0232
     42 H           5.3286   -3.5369    0.0000 H       1  UNL1        0.0232
     43 H           5.3803   -4.4121    0.0000 H       1  UNL1        0.0232
     44 H           6.2556   -4.3604    0.0000 H       1  UNL1        0.0232
     45 H           1.9969   -0.8480    0.0000 H       1  UNL1        0.0274
     46 H           1.3800   -1.4710    0.0000 H       1  UNL1        0.0274
     47 H           2.0031   -2.0880    0.0000 H       1  UNL1        0.0274
     48 H           5.2418    2.0041    0.0000 H       1  UNL1        0.0280
     49 H           5.6477    2.7813    0.0000 H       1  UNL1        0.0280
     50 H           4.8704    3.1872    0.0000 H       1  UNL1        0.0280
     51 H           2.7741    2.7869    0.0000 H       1  UNL1        0.0574
     52 H           4.1884    3.8137    0.0000 H       1  UNL1        0.0272
     53 H           3.7182    4.5538    0.0000 H       1  UNL1        0.0272
     54 H           2.9781    4.0836    0.0000 H       1  UNL1        0.0272
@<TRIPOS>BOND
     1     1     5    1
     2     1    37    1
     3     2    11    1
     4     2    20    1
     5     3    10    2
     6     4    20    2
     7     5     6    1
     8     5     7    1
     9     5     9    1
    10     6    10    1
    11     6    11    1
    12     6    13    1
    13     7     8    1
    14     7    12    1
    15     7    25    1
    16     8    10    1
    17     8    26    1
    18     8    27    1
    19     9    14    1
    20     9    28    1
    21     9    29    1
    22    11    15    1
    23    11    30    1
    24    12    17    1
    25    12    18    1
    26    12    31    1
    27    13    32    1
    28    13    33    1
    29    13    34    1
    30    14    16    1
    31    14    35    1
    32    14    36    1
    33    15    16    2
    34    15    38    1
    35    16    19    1
    36    17    39    1
    37    17    40    1
    38    17    41    1
    39    18    42    1
    40    18    43    1
    41    18    44    1
    42    19    45    1
    43    19    46    1
    44    19    47    1
    45    20    21    1
    46    21    22    1
    47    21    23    2
    48    22    48    1
    49    22    49    1
    50    22    50    1
    51    23    24    1
    52    23    51    1
    53    24    52    1
    54    24    53    1
    55    24    54    1
