@<TRIPOS>MOLECULE
IMPHY014308
 26 28 0 0 0
SMALL
GASTEIGER

@<TRIPOS>ATOM
      1 O           3.7860    0.7846    0.0000 O.2     1  UNL1       -0.4597
      2 O           3.7700   -2.2846    0.0000 O.2     1  UNL1       -0.4596
      3 O           7.2666   -2.1846    0.0000 O.2     1  UNL1       -0.2878
      4 C           4.6520   -0.7154    0.0000 C.ar    1  UNL1        0.0670
      5 C           5.5180   -0.2154    0.0000 C.ar    1  UNL1       -0.0041
      6 C           3.7860   -0.2154    0.0000 C.ar    1  UNL1        0.1423
      7 C           4.6681   -1.7569    0.0000 C.ar    1  UNL1        0.1428
      8 C           5.5180    0.7846    0.0000 C.ar    1  UNL1       -0.0158
      9 C           2.8760   -0.7222    0.0000 C.ar    1  UNL1        0.0192
     10 C           4.6520    1.2846    0.0000 C.ar    1  UNL1        0.1032
     11 C           6.3775   -0.7101    0.0000 C.ar    1  UNL1       -0.0068
     12 C           2.8680   -1.7638    0.0000 C.ar    1  UNL1        0.1061
     13 C           5.5452   -2.2196    0.0000 C.ar    1  UNL1        0.0281
     14 C           6.3909   -1.7018    0.0000 C.ar    1  UNL1        0.1831
     15 C           4.6520    2.2846    0.0000 C.3     1  UNL1       -0.0063
     16 C           2.0000   -2.2605    0.0000 C.3     1  UNL1       -0.0062
     17 H           6.0550    1.0946    0.0000 H       1  UNL1        0.0657
     18 H           2.3427   -0.4060    0.0000 H       1  UNL1        0.0688
     19 H           6.9121   -0.3962    0.0000 H       1  UNL1        0.0662
     20 H           5.5650   -2.8393    0.0000 H       1  UNL1        0.0693
     21 H           5.2720    2.2846    0.0000 H       1  UNL1        0.0308
     22 H           4.6520    2.9046    0.0000 H       1  UNL1        0.0308
     23 H           4.0320    2.2846    0.0000 H       1  UNL1        0.0308
     24 H           1.6921   -1.7224    0.0000 H       1  UNL1        0.0308
     25 H           1.4619   -2.5684    0.0000 H       1  UNL1        0.0308
     26 H           2.3079   -2.7986    0.0000 H       1  UNL1        0.0308
@<TRIPOS>BOND
     1     1     6   ar
     2     1    10   ar
     3     2     7   ar
     4     2    12   ar
     5     3    14    2
     6     4     5   ar
     7     4     6   ar
     8     4     7   ar
     9     5     8   ar
    10     5    11   ar
    11     6     9   ar
    12     7    13   ar
    13     8    10   ar
    14     8    17    1
    15     9    12   ar
    16     9    18    1
    17    10    15    1
    18    11    14   ar
    19    11    19    1
    20    12    16    1
    21    13    14   ar
    22    13    20    1
    23    15    21    1
    24    15    22    1
    25    15    23    1
    26    16    24    1
    27    16    25    1
    28    16    26    1
