@<TRIPOS>MOLECULE
IMPHY016048
 21 20 0 0 0
SMALL
GASTEIGER

@<TRIPOS>ATOM
      1 C          10.6603    1.7500    0.0000 C.2     1  UNL1       -0.0541
      2 C          11.5263    2.2500    0.0000 C.2     1  UNL1       -0.0683
      3 C           9.7942    2.2500    0.0000 C.2     1  UNL1       -0.0106
      4 C          12.3923    1.7500    0.0000 C.2     1  UNL1       -0.0987
      5 C           8.9282    1.7500    0.0000 C.1     1  UNL1       -0.0602
      6 C           2.0000   -2.2500    0.0000 C.3     1  UNL1       -0.0016
      7 C           8.0622    1.2500    0.0000 C.1     1  UNL1       -0.0092
      8 C           2.8660   -1.7500    0.0000 C.1     1  UNL1       -0.0918
      9 C           3.7320   -1.2500    0.0000 C.1     1  UNL1       -0.0142
     10 C           7.1962    0.7500    0.0000 C.1     1  UNL1       -0.0006
     11 C           4.5981   -0.7500    0.0000 C.1     1  UNL1       -0.0010
     12 C           6.3301    0.2500    0.0000 C.1     1  UNL1       -0.0000
     13 C           5.4641   -0.2500    0.0000 C.1     1  UNL1       -0.0000
     14 H          10.6603    1.1300    0.0000 H       1  UNL1        0.0624
     15 H          11.5263    2.8700    0.0000 H       1  UNL1        0.0612
     16 H           9.7942    2.8700    0.0000 H       1  UNL1        0.0712
     17 H          12.3923    1.1300    0.0000 H       1  UNL1        0.0535
     18 H          12.9292    2.0600    0.0000 H       1  UNL1        0.0535
     19 H           1.6900   -1.7131    0.0000 H       1  UNL1        0.0362
     20 H           1.4631   -2.5600    0.0000 H       1  UNL1        0.0362
     21 H           2.3100   -2.7869    0.0000 H       1  UNL1        0.0362
@<TRIPOS>BOND
     1     1     2    1
     2     1     3    2
     3     1    14    1
     4     2     4    2
     5     2    15    1
     6     3     5    1
     7     3    16    1
     8     4    17    1
     9     4    18    1
    10     5     7    3
    11     6     8    1
    12     6    19    1
    13     6    20    1
    14     6    21    1
    15     7    10    1
    16     8     9    3
    17     9    11    1
    18    10    12    3
    19    11    13    3
    20    12    13    1
