@<TRIPOS>MOLECULE
IMPHY000209
 78 80 0 0 0
SMALL
GASTEIGER

@<TRIPOS>ATOM
      1 O           5.2404    0.7737    0.0000 O.3     1  UNL1       -0.4538
      2 O           4.7792    4.2842    0.0000 O.3     1  UNL1       -0.4495
      3 O           8.1020    4.3410    0.0000 O.3     1  UNL1       -0.3908
      4 O           5.5984    2.7107    0.0000 O.2     1  UNL1       -0.2881
      5 O           6.8790    0.2127    0.0000 O.2     1  UNL1       -0.2456
      6 O           4.0472    5.8540    0.0000 O.2     1  UNL1       -0.2511
      7 C           3.0000    1.2102    0.0000 C.3     1  UNL1       -0.0248
      8 C           3.8663    1.7106    0.0000 C.3     1  UNL1       -0.0249
      9 C           3.0003    2.2106    0.0000 C.3     1  UNL1       -0.0134
     10 C           4.7323    2.2106    0.0000 C.3     1  UNL1       -0.0078
     11 C           2.0000    1.2102    0.0000 C.3     1  UNL1       -0.0590
     12 C           3.5000    0.3442    0.0000 C.3     1  UNL1       -0.0590
     13 C           3.0003    3.2106    0.0000 C.2     1  UNL1       -0.0738
     14 C           5.5643    1.7198    0.0000 C.3     1  UNL1        0.1245
     15 C           5.5983    3.7106    0.0000 C.3     1  UNL1        0.1836
     16 C           6.5643    3.4518    0.0000 C.3     1  UNL1        0.0510
     17 C           3.8663    3.7106    0.0000 C.2     1  UNL1       -0.0076
     18 C           5.5489    4.7035    0.0000 C.3     1  UNL1        0.0002
     19 C           7.1035    4.2869    0.0000 C.3     1  UNL1        0.0682
     20 C           6.5643    1.7198    0.0000 C.2     1  UNL1       -0.0361
     21 C           6.4772    5.0590    0.0000 C.3     1  UNL1       -0.0130
     22 C           4.7323    3.2106    0.0000 C.2     1  UNL1        0.2027
     23 C           7.0643    2.5858    0.0000 C.2     1  UNL1       -0.0719
     24 C           3.5243    4.6504    0.0000 C.3     1  UNL1       -0.0366
     25 C           7.0643    0.8538    0.0000 C.3     1  UNL1       -0.0403
     26 C           6.7361    6.0249    0.0000 C.3     1  UNL1       -0.0599
     27 C           5.8978    0.0201    0.0000 C.2     1  UNL1        0.3325
     28 C           4.8663    5.2804    0.0000 C.2     1  UNL1        0.3049
     29 C           5.5739   -0.9260    0.0000 C.2     1  UNL1        0.0225
     30 C           5.7726    5.7030    0.0000 C.3     1  UNL1        0.0333
     31 C           6.2313   -1.6795    0.0000 C.2     1  UNL1       -0.0553
     32 C           5.9074   -2.6256    0.0000 C.2     1  UNL1       -0.0655
     33 C           6.5648   -3.3791    0.0000 C.2     1  UNL1       -0.0840
     34 C           6.2409   -4.3252    0.0000 C.3     1  UNL1       -0.0347
     35 C           6.8983   -5.0788    0.0000 C.3     1  UNL1       -0.0525
     36 C           6.5744   -6.0249    0.0000 C.3     1  UNL1       -0.0650
     37 H           4.2914    0.9746    0.0000 H       1  UNL1        0.0313
     38 H           2.1503    2.2108    0.0000 H       1  UNL1        0.0351
     39 H           5.1338    2.6831    0.0000 H       1  UNL1        0.0307
     40 H           4.3353    2.6869    0.0000 H       1  UNL1        0.0307
     41 H           2.0000    1.8302    0.0000 H       1  UNL1        0.0235
     42 H           1.3800    1.2102    0.0000 H       1  UNL1        0.0235
     43 H           2.0000    0.5902    0.0000 H       1  UNL1        0.0235
     44 H           2.9631    0.0342    0.0000 H       1  UNL1        0.0235
     45 H           3.8100   -0.1928    0.0000 H       1  UNL1        0.0235
     46 H           4.0369    0.6542    0.0000 H       1  UNL1        0.0235
     47 H           2.4633    3.5206    0.0000 H       1  UNL1        0.0579
     48 H           5.9247    1.2154    0.0000 H       1  UNL1        0.0782
     49 H           7.4140    3.4307    0.0000 H       1  UNL1        0.0412
     50 H           5.3893    5.3026    0.0000 H       1  UNL1        0.0312
     51 H           4.9363    4.6078    0.0000 H       1  UNL1        0.0312
     52 H           7.3550    4.8537    0.0000 H       1  UNL1        0.0603
     53 H           6.0167    5.4740    0.0000 H       1  UNL1        0.0325
     54 H           7.6843    2.5858    0.0000 H       1  UNL1        0.0578
     55 H           4.1069    4.8624    0.0000 H       1  UNL1        0.0279
     56 H           3.3122    5.2330    0.0000 H       1  UNL1        0.0279
     57 H           2.9416    4.4383    0.0000 H       1  UNL1        0.0279
     58 H           7.3349    5.8644    0.0000 H       1  UNL1        0.0233
     59 H           6.8965    6.6238    0.0000 H       1  UNL1        0.0233
     60 H           6.1372    6.1853    0.0000 H       1  UNL1        0.0233
     61 H           6.5273    0.5438    0.0000 H       1  UNL1        0.0276
     62 H           7.3743    0.3168    0.0000 H       1  UNL1        0.0276
     63 H           7.6012    1.1638    0.0000 H       1  UNL1        0.0276
     64 H           8.3826    4.8939    0.0000 H       1  UNL1        0.2098
     65 H           4.9655   -1.0453    0.0000 H       1  UNL1        0.0689
     66 H           6.0347    5.1411    0.0000 H       1  UNL1        0.0342
     67 H           6.3346    5.9651    0.0000 H       1  UNL1        0.0342
     68 H           5.5106    6.2650    0.0000 H       1  UNL1        0.0342
     69 H           6.8397   -1.5601    0.0000 H       1  UNL1        0.0620
     70 H           5.2990   -2.7450    0.0000 H       1  UNL1        0.0615
     71 H           7.1732   -3.2598    0.0000 H       1  UNL1        0.0572
     72 H           5.6981   -4.0256    0.0000 H       1  UNL1        0.0307
     73 H           5.8515   -4.8078    0.0000 H       1  UNL1        0.0307
     74 H           7.4410   -5.3784    0.0000 H       1  UNL1        0.0266
     75 H           7.2876   -4.5963    0.0000 H       1  UNL1        0.0266
     76 H           5.9878   -5.8241    0.0000 H       1  UNL1        0.0230
     77 H           6.3736   -6.6114    0.0000 H       1  UNL1        0.0230
     78 H           7.1609   -6.2257    0.0000 H       1  UNL1        0.0230
@<TRIPOS>BOND
     1    14     1    1
     2     1    27    1
     3    15     2    1
     4     2    28    1
     5    19     3    1
     6     3    64    1
     7     4    22    2
     8     5    27    2
     9     6    28    2
    10     7     8    1
    11     7     9    1
    12     7    11    1
    13     7    12    1
    14     8     9    1
    15     8    10    1
    16     8    37    1
    17     9    13    1
    18     9    38    1
    19    10    14    1
    20    10    39    1
    21    10    40    1
    22    11    41    1
    23    11    42    1
    24    11    43    1
    25    12    44    1
    26    12    45    1
    27    12    46    1
    28    13    17    2
    29    13    47    1
    30    14    20    1
    31    14    48    1
    32    15    16    1
    33    15    18    1
    34    15    22    1
    35    16    19    1
    36    16    23    1
    37    16    49    1
    38    17    22    1
    39    17    24    1
    40    18    21    1
    41    18    50    1
    42    18    51    1
    43    19    21    1
    44    19    52    1
    45    20    23    2
    46    20    25    1
    47    21    26    1
    48    21    53    1
    49    23    54    1
    50    24    55    1
    51    24    56    1
    52    24    57    1
    53    25    61    1
    54    25    62    1
    55    25    63    1
    56    26    58    1
    57    26    59    1
    58    26    60    1
    59    27    29    1
    60    28    30    1
    61    29    31    2
    62    29    65    1
    63    30    66    1
    64    30    67    1
    65    30    68    1
    66    31    32    1
    67    31    69    1
    68    32    33    2
    69    32    70    1
    70    33    34    1
    71    33    71    1
    72    34    35    1
    73    34    72    1
    74    34    73    1
    75    35    36    1
    76    35    74    1
    77    35    75    1
    78    36    76    1
    79    36    77    1
    80    36    78    1
