@<TRIPOS>MOLECULE
IMPHY010552
 67 72 0 0 0
SMALL
GASTEIGER

@<TRIPOS>ATOM
      1 O           8.1301   -1.7874    0.0000 O.3     1  UNL1       -0.3369
      2 O           6.3981   -1.7874    0.0000 O.3     1  UNL1       -0.4598
      3 O           8.1301   -4.7874    0.0000 O.3     1  UNL1       -0.3743
      4 O           9.8622   -3.7874    0.0000 O.3     1  UNL1       -0.3748
      5 O           6.3981   -3.7874    0.0000 O.3     1  UNL1       -0.3829
      6 O           8.7939    0.2126    0.0000 O.3     1  UNL1       -0.4562
      7 O           2.8680   -0.8116    0.0000 O.3     1  UNL1       -0.4914
      8 O           8.5210    1.9678    0.0000 O.2     1  UNL1       -0.2449
      9 O           2.8680    1.2367    0.0000 O.3     1  UNL1       -0.4914
     10 O           8.0011    4.3796    0.0000 O.3     1  UNL1       -0.4526
     11 O           6.6073    5.1844    0.0000 O.3     1  UNL1       -0.4526
     12 C           8.1301   -3.7874    0.0000 C.3     1  UNL1        0.1181
     13 C           7.2641   -3.2874    0.0000 C.3     1  UNL1        0.1457
     14 C           8.9962   -3.2874    0.0000 C.3     1  UNL1        0.1103
     15 C           7.2641   -2.2874    0.0000 C.3     1  UNL1        0.2305
     16 C           8.9962   -2.2874    0.0000 C.3     1  UNL1        0.0804
     17 C           6.3981   -0.7874    0.0000 C.ar    1  UNL1        0.1390
     18 C           7.2641   -0.2874    0.0000 C.ar    1  UNL1        0.0466
     19 C           5.5320   -0.2874    0.0000 C.ar    1  UNL1        0.0286
     20 C           7.2641    0.7126    0.0000 C.ar    1  UNL1        0.0772
     21 C           6.3981    1.2126    0.0000 C.ar    1  UNL1        0.0046
     22 C           5.5320    0.7126    0.0000 C.ar    1  UNL1       -0.0022
     23 C           8.2103   -0.5922    0.0000 C.3     1  UNL1        0.1220
     24 C           6.3981    2.2126    0.0000 C.ar    1  UNL1       -0.0128
     25 C           8.2103    1.0173    0.0000 C.2     1  UNL1        0.3406
     26 C           4.6381   -0.8221    0.0000 C.ar    1  UNL1       -0.0051
     27 C           4.6381    1.2472    0.0000 C.ar    1  UNL1       -0.0079
     28 C           8.9962   -5.2874    0.0000 C.3     1  UNL1        0.0370
     29 C          10.7282   -3.2874    0.0000 C.3     1  UNL1        0.0370
     30 C           3.7320   -0.3083    0.0000 C.ar    1  UNL1        0.1622
     31 C           3.7320    0.7334    0.0000 C.ar    1  UNL1        0.1621
     32 C           7.2641    2.7126    0.0000 C.ar    1  UNL1       -0.0084
     33 C           5.5320    2.7126    0.0000 C.ar    1  UNL1       -0.0503
     34 C           7.2641    3.7126    0.0000 C.ar    1  UNL1        0.1668
     35 C           6.3981    4.2126    0.0000 C.ar    1  UNL1        0.1663
     36 C           5.5320    3.7126    0.0000 C.ar    1  UNL1       -0.0156
     37 C           7.5960    5.2874    0.0000 C.3     1  UNL1        0.2332
     38 C           2.8718   -1.8116    0.0000 C.3     1  UNL1        0.0790
     39 C           2.0000    0.7401    0.0000 C.3     1  UNL1        0.0790
     40 H           8.6671   -4.0974    0.0000 H       1  UNL1        0.0651
     41 H           7.2641   -3.9074    0.0000 H       1  UNL1        0.0683
     42 H           9.5331   -2.9774    0.0000 H       1  UNL1        0.0646
     43 H           7.2641   -1.6674    0.0000 H       1  UNL1        0.1084
     44 H           9.6067   -2.3951    0.0000 H       1  UNL1        0.0588
     45 H           9.2082   -1.7048    0.0000 H       1  UNL1        0.0588
     46 H           7.9593   -1.1591    0.0000 H       1  UNL1        0.0750
     47 H           8.7477   -0.9014    0.0000 H       1  UNL1        0.0750
     48 H           6.3981   -4.4074    0.0000 H       1  UNL1        0.2102
     49 H           4.6453   -1.4421    0.0000 H       1  UNL1        0.0662
     50 H           4.6453    1.8672    0.0000 H       1  UNL1        0.0662
     51 H           8.6862   -5.8244    0.0000 H       1  UNL1        0.0524
     52 H           9.5331   -5.5974    0.0000 H       1  UNL1        0.0524
     53 H           9.3062   -4.7505    0.0000 H       1  UNL1        0.0524
     54 H          11.0382   -3.8244    0.0000 H       1  UNL1        0.0524
     55 H          11.2651   -2.9774    0.0000 H       1  UNL1        0.0524
     56 H          10.4182   -2.7505    0.0000 H       1  UNL1        0.0524
     57 H           7.8010    2.4026    0.0000 H       1  UNL1        0.0661
     58 H           4.9951    2.4026    0.0000 H       1  UNL1        0.0625
     59 H           4.9951    4.0226    0.0000 H       1  UNL1        0.0655
     60 H           8.1856    5.4792    0.0000 H       1  UNL1        0.1166
     61 H           7.4673    5.8939    0.0000 H       1  UNL1        0.1166
     62 H           2.2518   -1.8140    0.0000 H       1  UNL1        0.0660
     63 H           2.8742   -2.4316    0.0000 H       1  UNL1        0.0660
     64 H           3.4918   -1.8092    0.0000 H       1  UNL1        0.0660
     65 H           1.6921    1.2782    0.0000 H       1  UNL1        0.0660
     66 H           1.4619    0.4321    0.0000 H       1  UNL1        0.0660
     67 H           2.3079    0.2019    0.0000 H       1  UNL1        0.0660
@<TRIPOS>BOND
     1     1    15    1
     2     1    16    1
     3    15     2    1
     4     2    17    1
     5    12     3    1
     6     3    28    1
     7    14     4    1
     8     4    29    1
     9    13     5    1
    10     5    48    1
    11     6    23    1
    12     6    25    1
    13     7    30    1
    14     7    38    1
    15     8    25    2
    16     9    31    1
    17     9    39    1
    18    10    34    1
    19    10    37    1
    20    11    35    1
    21    11    37    1
    22    12    13    1
    23    12    14    1
    24    12    40    1
    25    13    15    1
    26    13    41    1
    27    14    16    1
    28    14    42    1
    29    15    43    1
    30    16    44    1
    31    16    45    1
    32    17    18   ar
    33    17    19   ar
    34    18    20   ar
    35    18    23    1
    36    19    22   ar
    37    19    26   ar
    38    20    21   ar
    39    20    25    1
    40    21    22   ar
    41    21    24    1
    42    22    27   ar
    43    23    46    1
    44    23    47    1
    45    24    32   ar
    46    24    33   ar
    47    26    30   ar
    48    26    49    1
    49    27    31   ar
    50    27    50    1
    51    28    51    1
    52    28    52    1
    53    28    53    1
    54    29    54    1
    55    29    55    1
    56    29    56    1
    57    30    31   ar
    58    32    34   ar
    59    32    57    1
    60    33    36   ar
    61    33    58    1
    62    34    35   ar
    63    35    36   ar
    64    36    59    1
    65    37    60    1
    66    37    61    1
    67    38    62    1
    68    38    63    1
    69    38    64    1
    70    39    65    1
    71    39    66    1
    72    39    67    1
