@<TRIPOS>MOLECULE
IMPHY012490
 26 29 0 0 0
SMALL
GASTEIGER

@<TRIPOS>ATOM
      1 O           2.0000    0.1577    0.0000 O.2     1  UNL1       -0.2673
      2 O           6.6038    1.8030    0.0000 O.2     1  UNL1       -0.2872
      3 N           3.7602   -0.0304    0.0000 N.ar    1  UNL1       -0.2742
      4 N           5.3799   -2.1014    0.0000 N.ar    1  UNL1       -0.3595
      5 C           4.5692   -0.6182    0.0000 C.ar    1  UNL1        0.0812
      6 C           5.3782   -0.0304    0.0000 C.ar    1  UNL1        0.0151
      7 C           4.0692    0.9206    0.0000 C.ar    1  UNL1        0.0615
      8 C           5.0692    0.9206    0.0000 C.ar    1  UNL1        0.0548
      9 C           4.4763   -1.6557    0.0000 C.ar    1  UNL1        0.0642
     10 C           2.8022   -0.4394    0.0000 C.ar    1  UNL1        0.2563
     11 C           6.2345   -0.5614    0.0000 C.ar    1  UNL1       -0.0358
     12 C           3.5345    1.8146    0.0000 C.ar    1  UNL1       -0.0369
     13 C           5.6038    1.8146    0.0000 C.ar    1  UNL1        0.1887
     14 C           3.5280   -2.0867    0.0000 C.ar    1  UNL1       -0.0312
     15 C           2.6853   -1.4744    0.0000 C.ar    1  UNL1        0.0053
     16 C           6.2353   -1.5690    0.0000 C.ar    1  UNL1        0.0028
     17 C           4.0484    2.7206    0.0000 C.ar    1  UNL1       -0.0561
     18 C           5.0900    2.7206    0.0000 C.ar    1  UNL1       -0.0142
     19 H           6.7761   -0.2597    0.0000 H       1  UNL1        0.0639
     20 H           2.9146    1.8074    0.0000 H       1  UNL1        0.0638
     21 H           3.4656   -2.7036    0.0000 H       1  UNL1        0.0640
     22 H           5.4104   -2.7206    0.0000 H       1  UNL1        0.1654
     23 H           2.1179   -1.7244    0.0000 H       1  UNL1        0.0672
     24 H           6.7774   -1.8698    0.0000 H       1  UNL1        0.0807
     25 H           3.7363    3.2564    0.0000 H       1  UNL1        0.0619
     26 H           5.4021    3.2564    0.0000 H       1  UNL1        0.0656
@<TRIPOS>BOND
     1     1    10    2
     2     2    13    2
     3     3     5   ar
     4     3     7   ar
     5     3    10   ar
     6     4     9   ar
     7     4    16   ar
     8     4    22    1
     9     5     6   ar
    10     5     9   ar
    11     6     8   ar
    12     6    11   ar
    13     7     8   ar
    14     7    12   ar
    15     8    13   ar
    16     9    14   ar
    17    10    15   ar
    18    11    16   ar
    19    11    19    1
    20    12    17   ar
    21    12    20    1
    22    13    18   ar
    23    14    15   ar
    24    14    21    1
    25    15    23    1
    26    16    24    1
    27    17    18   ar
    28    17    25    1
    29    18    26    1
