@<TRIPOS>MOLECULE
IMPHY012415
 59 65 0 0 0
SMALL
GASTEIGER

@<TRIPOS>ATOM
      1 O           4.5732    3.0969    0.0000 O.3     1  UNL1       -0.4522
      2 O           3.1278    3.9463    0.0000 O.3     1  UNL1       -0.4526
      3 O           7.2482    1.3664    0.0000 O.co2   1  UNL1       -0.5815
      4 O           6.3821   -0.1336    0.0000 O.2     1  UNL1        0.0347
      5 O           5.5740   -3.9982    0.0000 O.3     1  UNL1       -0.4526
      6 O           4.0684   -4.8829    0.0000 O.3     1  UNL1       -0.4526
      7 O           8.9802    4.3665    0.0000 O.3     1  UNL1       -0.5068
      8 N           4.6501   -0.1336    0.0000 N.pl3   1  UNL1       -0.3187
      9 N           6.3821    0.8664    0.0000 N.pl3   1  UNL1        0.0437
     10 C           4.6501    0.8664    0.0000 C.3     1  UNL1        0.1206
     11 C           5.5161    1.3664    0.0000 C.3     1  UNL1        0.2431
     12 C           3.7841    1.3664    0.0000 C.ar    1  UNL1        0.0327
     13 C           3.7841   -0.6336    0.0000 C.ar    1  UNL1        0.0459
     14 C           2.9180    0.8664    0.0000 C.ar    1  UNL1       -0.0072
     15 C           2.9180   -0.1336    0.0000 C.ar    1  UNL1        0.0042
     16 C           5.5161    2.3664    0.0000 C.3     1  UNL1        0.0425
     17 C           3.8001    2.4080    0.0000 C.ar    1  UNL1        0.1720
     18 C           3.8001   -1.6751    0.0000 C.ar    1  UNL1        0.0074
     19 C           5.5161   -0.6336    0.0000 C.3     1  UNL1        0.0015
     20 C           2.0080    1.3733    0.0000 C.ar    1  UNL1       -0.0500
     21 C           2.0080   -0.6404    0.0000 C.ar    1  UNL1       -0.0517
     22 C           2.9021   -2.2028    0.0000 C.ar    1  UNL1       -0.0124
     23 C           2.9021    2.9357    0.0000 C.ar    1  UNL1        0.1666
     24 C           6.3821    2.8664    0.0000 C.ar    1  UNL1       -0.0406
     25 C           2.0000    2.4149    0.0000 C.ar    1  UNL1       -0.0155
     26 C           2.0000   -1.6820    0.0000 C.ar    1  UNL1       -0.0532
     27 C           4.7520   -2.1957    0.0000 C.ar    1  UNL1       -0.0066
     28 C           2.8937   -3.2878    0.0000 C.ar    1  UNL1       -0.0084
     29 C           4.1585    4.0457    0.0000 C.3     1  UNL1        0.2332
     30 C           4.7688   -3.2806    0.0000 C.ar    1  UNL1        0.1669
     31 C           3.8334   -3.8303    0.0000 C.ar    1  UNL1        0.1668
     32 C           7.2482    2.3664    0.0000 C.ar    1  UNL1       -0.0549
     33 C           6.3821    3.8664    0.0000 C.ar    1  UNL1       -0.0549
     34 C           5.1420   -4.9864    0.0000 C.3     1  UNL1        0.2332
     35 C           8.1142    2.8664    0.0000 C.ar    1  UNL1       -0.0199
     36 C           7.2482    4.3665    0.0000 C.ar    1  UNL1       -0.0199
     37 C           8.1142    3.8664    0.0000 C.ar    1  UNL1        0.1169
     38 H           5.1870    0.5564    0.0000 H       1  UNL1        0.0620
     39 H           6.0530    1.6764    0.0000 H       1  UNL1        0.1151
     40 H           5.3040    2.9491    0.0000 H       1  UNL1        0.0381
     41 H           4.9055    2.2588    0.0000 H       1  UNL1        0.0381
     42 H           5.2061   -1.1705    0.0000 H       1  UNL1        0.0428
     43 H           6.0530   -0.9436    0.0000 H       1  UNL1        0.0428
     44 H           5.8261   -0.0966    0.0000 H       1  UNL1        0.0428
     45 H           1.4747    1.0571    0.0000 H       1  UNL1        0.0625
     46 H           1.4747   -0.3242    0.0000 H       1  UNL1        0.0624
     47 H           1.4619    2.7228    0.0000 H       1  UNL1        0.0655
     48 H           1.4619   -1.9899    0.0000 H       1  UNL1        0.0624
     49 H           5.2829   -1.8754    0.0000 H       1  UNL1        0.0662
     50 H           2.3556   -3.5957    0.0000 H       1  UNL1        0.0661
     51 H           4.7495    4.2329    0.0000 H       1  UNL1        0.1166
     52 H           4.0344    4.6531    0.0000 H       1  UNL1        0.1166
     53 H           7.2482    1.7464    0.0000 H       1  UNL1        0.0621
     54 H           5.8452    4.1764    0.0000 H       1  UNL1        0.0621
     55 H           5.0180   -5.5939    0.0000 H       1  UNL1        0.1166
     56 H           5.7331   -5.1737    0.0000 H       1  UNL1        0.1166
     57 H           8.6511    2.5564    0.0000 H       1  UNL1        0.0654
     58 H           7.2482    4.9864    0.0000 H       1  UNL1        0.0654
     59 H           8.9802    4.9864    0.0000 H       1  UNL1        0.2921
@<TRIPOS>UNITY_ATOM_ATTR
3 1
charge -1
9 1
charge 1
@<TRIPOS>BOND
     1     1    17    1
     2     1    29    1
     3     2    23    1
     4     2    29    1
     5     3     9    1
     6     4     9    2
     7     5    30    1
     8     5    34    1
     9     6    31    1
    10     6    34    1
    11     7    37    1
    12     7    59    1
    13     8    10    1
    14     8    13    1
    15     8    19    1
    16     9    11    1
    17    10    11    1
    18    10    12    1
    19    10    38    1
    20    11    16    1
    21    11    39    1
    22    12    14   ar
    23    12    17   ar
    24    13    15   ar
    25    13    18   ar
    26    14    15    1
    27    14    20   ar
    28    15    21   ar
    29    16    24    1
    30    16    40    1
    31    16    41    1
    32    17    23   ar
    33    18    22   ar
    34    18    27   ar
    35    19    42    1
    36    19    43    1
    37    19    44    1
    38    20    25   ar
    39    20    45    1
    40    21    26   ar
    41    21    46    1
    42    22    26   ar
    43    22    28   ar
    44    23    25   ar
    45    24    32   ar
    46    24    33   ar
    47    25    47    1
    48    26    48    1
    49    27    30   ar
    50    27    49    1
    51    28    31   ar
    52    28    50    1
    53    29    51    1
    54    29    52    1
    55    30    31   ar
    56    32    35   ar
    57    32    53    1
    58    33    36   ar
    59    33    54    1
    60    34    55    1
    61    34    56    1
    62    35    37   ar
    63    35    57    1
    64    36    37   ar
    65    36    58    1
