@<TRIPOS>MOLECULE
IMPHY000797
 58 59 0 0 0
SMALL
GASTEIGER

@<TRIPOS>ATOM
      1 P           6.8909   -2.0214    0.0000 P.3     1  UNL1        0.4835
      2 P           8.4732   -2.7259    0.0000 P.3     1  UNL1        0.4835
      3 O           5.0298    0.4432    0.0000 O.3     1  UNL1       -0.3456
      4 O           3.1330   -1.3169    0.0000 O.3     1  UNL1       -0.3864
      5 O           2.4608    0.7522    0.0000 O.3     1  UNL1       -0.3847
      6 O           6.3031   -1.2124    0.0000 O.3     1  UNL1       -0.2837
      7 O           7.4787   -2.8304    0.0000 O.3     1  UNL1       -0.1861
      8 O           9.4677   -2.6214    0.0000 O.3     1  UNL1       -0.2837
      9 O          12.4469   -3.5471    0.0000 O.3     1  UNL1       -0.3839
     10 O           5.9529    2.0309    0.0000 O.2     1  UNL1       -0.2444
     11 O          11.4568   -2.4123    0.0000 O.3     1  UNL1       -0.3866
     12 O           7.6999   -1.4336    0.0000 O.3     1  UNL1       -0.3022
     13 O           6.0819   -2.6092    0.0000 O.2     1  UNL1       -0.2269
     14 O          13.2201   -4.8394    0.0000 O.3     1  UNL1       -0.3921
     15 O           8.5778   -3.7204    0.0000 O.3     1  UNL1       -0.3022
     16 O           8.3687   -1.7314    0.0000 O.2     1  UNL1       -0.2269
     17 N           4.2208    2.0309    0.0000 N.ar    1  UNL1       -0.2700
     18 N           5.0868    3.5310    0.0000 N.ar    1  UNL1       -0.1783
     19 N           4.2208    5.0310    0.0000 N.pl3   1  UNL1       -0.3430
     20 C           3.7208   -0.5079    0.0000 C.3     1  UNL1        0.1135
     21 C           3.4118    0.4432    0.0000 C.3     1  UNL1        0.1286
     22 C           4.7208   -0.5079    0.0000 C.3     1  UNL1        0.1134
     23 C           4.2208    1.0310    0.0000 C.3     1  UNL1        0.1680
     24 C           5.3086   -1.3169    0.0000 C.3     1  UNL1        0.0879
     25 C           3.3548    2.5309    0.0000 C.ar    1  UNL1        0.0152
     26 C           5.0868    2.5309    0.0000 C.ar    1  UNL1        0.3522
     27 C          11.6378   -4.1349    0.0000 C.3     1  UNL1        0.1140
     28 C          11.0501   -3.3258    0.0000 C.3     1  UNL1        0.1095
     29 C           3.3548    3.5310    0.0000 C.ar    1  UNL1       -0.0056
     30 C          10.0555   -3.4304    0.0000 C.3     1  UNL1        0.0878
     31 C          12.2256   -4.9439    0.0000 C.3     1  UNL1        0.0752
     32 C          10.8288   -4.7226    0.0000 C.3     1  UNL1       -0.0314
     33 C           4.2208    4.0310    0.0000 C.ar    1  UNL1        0.1230
     34 H           3.1085   -0.4109    0.0000 H       1  UNL1        0.0647
     35 H           2.9734    0.0048    0.0000 H       1  UNL1        0.0665
     36 H           5.3332   -0.4109    0.0000 H       1  UNL1        0.0647
     37 H           3.6684    1.3124    0.0000 H       1  UNL1        0.0867
     38 H           4.7514   -1.5887    0.0000 H       1  UNL1        0.0592
     39 H           5.4795   -1.9129    0.0000 H       1  UNL1        0.0592
     40 H           3.3852   -1.8833    0.0000 H       1  UNL1        0.2100
     41 H           2.0000    0.3373    0.0000 H       1  UNL1        0.2101
     42 H           2.8179    2.2210    0.0000 H       1  UNL1        0.0812
     43 H          11.6667   -3.2610    0.0000 H       1  UNL1        0.0646
     44 H           2.8179    3.8410    0.0000 H       1  UNL1        0.0666
     45 H           9.4983   -3.7022    0.0000 H       1  UNL1        0.0592
     46 H          10.2264   -4.0264    0.0000 H       1  UNL1        0.0592
     47 H          11.6684   -5.2157    0.0000 H       1  UNL1        0.0586
     48 H          12.3965   -5.5399    0.0000 H       1  UNL1        0.0586
     49 H          10.4644   -4.2211    0.0000 H       1  UNL1        0.0259
     50 H          10.3272   -5.0871    0.0000 H       1  UNL1        0.0259
     51 H          11.1932   -5.2242    0.0000 H       1  UNL1        0.0259
     52 H          13.0133   -3.7993    0.0000 H       1  UNL1        0.2104
     53 H          12.0734   -2.3475    0.0000 H       1  UNL1        0.2100
     54 H           7.6351   -0.8170    0.0000 H       1  UNL1        0.2220
     55 H           3.6839    5.3410    0.0000 H       1  UNL1        0.1437
     56 H           4.7578    5.3410    0.0000 H       1  UNL1        0.1437
     57 H          13.5846   -5.3410    0.0000 H       1  UNL1        0.2095
     58 H           8.0762   -4.0848    0.0000 H       1  UNL1        0.2220
@<TRIPOS>BOND
     1     1     6    1
     2     1     7    1
     3     1    12    1
     4     1    13    2
     5     2     7    1
     6     2     8    1
     7     2    15    1
     8     2    16    2
     9     3    22    1
    10     3    23    1
    11    20     4    1
    12     4    40    1
    13    21     5    1
    14     5    41    1
    15     6    24    1
    16     8    30    1
    17    27     9    1
    18     9    52    1
    19    10    26    2
    20    28    11    1
    21    11    53    1
    22    12    54    1
    23    14    31    1
    24    14    57    1
    25    15    58    1
    26    23    17    1
    27    17    25   ar
    28    17    26   ar
    29    18    26   ar
    30    18    33   ar
    31    19    33    1
    32    19    55    1
    33    19    56    1
    34    20    21    1
    35    20    22    1
    36    20    34    1
    37    21    23    1
    38    21    35    1
    39    22    24    1
    40    22    36    1
    41    23    37    1
    42    24    38    1
    43    24    39    1
    44    25    29   ar
    45    25    42    1
    46    27    28    1
    47    27    31    1
    48    27    32    1
    49    28    30    1
    50    28    43    1
    51    29    33   ar
    52    29    44    1
    53    30    45    1
    54    30    46    1
    55    31    47    1
    56    31    48    1
    57    32    49    1
    58    32    50    1
    59    32    51    1
