@<TRIPOS>MOLECULE
IMPHY016113
 72 71 0 0 0
SMALL
GASTEIGER

@<TRIPOS>ATOM
      1 O           7.1962    0.7500    0.0000 O.3     1  UNL1       -0.4646
      2 O           8.0622   -0.7500    0.0000 O.2     1  UNL1       -0.2509
      3 C          11.5263    0.2500    0.0000 C.3     1  UNL1       -0.0530
      4 C          12.3923    0.7500    0.0000 C.3     1  UNL1       -0.0528
      5 C          19.3205    0.7500    0.0000 C.3     1  UNL1       -0.0530
      6 C          18.4545    0.2500    0.0000 C.3     1  UNL1       -0.0528
      7 C          10.6603    0.7500    0.0000 C.3     1  UNL1       -0.0526
      8 C          20.1865    0.2500    0.0000 C.3     1  UNL1       -0.0531
      9 C          13.2583    0.2500    0.0000 C.3     1  UNL1       -0.0496
     10 C          17.5885    0.7500    0.0000 C.3     1  UNL1       -0.0496
     11 C           9.7942    0.2500    0.0000 C.3     1  UNL1       -0.0430
     12 C          21.0526    0.7500    0.0000 C.3     1  UNL1       -0.0533
     13 C          14.1244    0.7500    0.0000 C.3     1  UNL1       -0.0348
     14 C          16.7224    0.2500    0.0000 C.3     1  UNL1       -0.0348
     15 C           8.9282    0.7500    0.0000 C.3     1  UNL1        0.0449
     16 C          21.9186    0.2500    0.0000 C.3     1  UNL1       -0.0559
     17 C          14.9904    0.2500    0.0000 C.2     1  UNL1       -0.0879
     18 C          15.8564    0.7500    0.0000 C.2     1  UNL1       -0.0879
     19 C           4.5981    0.2500    0.0000 C.3     1  UNL1       -0.0500
     20 C           5.4641    0.7500    0.0000 C.3     1  UNL1       -0.0185
     21 C           3.7320    0.7500    0.0000 C.3     1  UNL1       -0.0532
     22 C           6.3301    0.2500    0.0000 C.3     1  UNL1        0.0925
     23 C           8.0622    0.2500    0.0000 C.2     1  UNL1        0.3071
     24 C          22.7846    0.7500    0.0000 C.3     1  UNL1       -0.0653
     25 C           2.8660    0.2500    0.0000 C.3     1  UNL1       -0.0559
     26 C           2.0000    0.7500    0.0000 C.3     1  UNL1       -0.0653
     27 H          11.1278   -0.2249    0.0000 H       1  UNL1        0.0265
     28 H          11.9248   -0.2249    0.0000 H       1  UNL1        0.0265
     29 H          12.7908    1.2250    0.0000 H       1  UNL1        0.0265
     30 H          11.9938    1.2250    0.0000 H       1  UNL1        0.0265
     31 H          19.7190    1.2250    0.0000 H       1  UNL1        0.0265
     32 H          18.9220    1.2250    0.0000 H       1  UNL1        0.0265
     33 H          18.0560   -0.2249    0.0000 H       1  UNL1        0.0265
     34 H          18.8530   -0.2249    0.0000 H       1  UNL1        0.0265
     35 H          11.0588    1.2250    0.0000 H       1  UNL1        0.0265
     36 H          10.2617    1.2250    0.0000 H       1  UNL1        0.0265
     37 H          19.7880   -0.2249    0.0000 H       1  UNL1        0.0265
     38 H          20.5851   -0.2249    0.0000 H       1  UNL1        0.0265
     39 H          12.8598   -0.2249    0.0000 H       1  UNL1        0.0268
     40 H          13.6569   -0.2249    0.0000 H       1  UNL1        0.0268
     41 H          17.9870    1.2250    0.0000 H       1  UNL1        0.0268
     42 H          17.1899    1.2250    0.0000 H       1  UNL1        0.0268
     43 H           9.3957   -0.2249    0.0000 H       1  UNL1        0.0270
     44 H          10.1928   -0.2249    0.0000 H       1  UNL1        0.0270
     45 H          21.4511    1.2250    0.0000 H       1  UNL1        0.0265
     46 H          20.6540    1.2250    0.0000 H       1  UNL1        0.0265
     47 H          14.5229    1.2250    0.0000 H       1  UNL1        0.0307
     48 H          13.7258    1.2250    0.0000 H       1  UNL1        0.0307
     49 H          16.3239   -0.2249    0.0000 H       1  UNL1        0.0307
     50 H          17.1210   -0.2249    0.0000 H       1  UNL1        0.0307
     51 H           9.3267    1.2250    0.0000 H       1  UNL1        0.0377
     52 H           8.5297    1.2250    0.0000 H       1  UNL1        0.0377
     53 H          21.5201   -0.2249    0.0000 H       1  UNL1        0.0263
     54 H          22.3171   -0.2249    0.0000 H       1  UNL1        0.0263
     55 H          14.9904   -0.3700    0.0000 H       1  UNL1        0.0569
     56 H          15.8564    1.3700    0.0000 H       1  UNL1        0.0569
     57 H           4.1996   -0.2249    0.0000 H       1  UNL1        0.0266
     58 H           4.9966   -0.2249    0.0000 H       1  UNL1        0.0266
     59 H           5.8626    1.2250    0.0000 H       1  UNL1        0.0298
     60 H           5.0656    1.2250    0.0000 H       1  UNL1        0.0298
     61 H           4.1306    1.2250    0.0000 H       1  UNL1        0.0265
     62 H           3.3335    1.2250    0.0000 H       1  UNL1        0.0265
     63 H           5.9316   -0.2249    0.0000 H       1  UNL1        0.0697
     64 H           6.7287   -0.2249    0.0000 H       1  UNL1        0.0697
     65 H          23.0946    0.2131    0.0000 H       1  UNL1        0.0230
     66 H          23.3215    1.0600    0.0000 H       1  UNL1        0.0230
     67 H          22.4746    1.2869    0.0000 H       1  UNL1        0.0230
     68 H           2.4675   -0.2249    0.0000 H       1  UNL1        0.0263
     69 H           3.2646   -0.2249    0.0000 H       1  UNL1        0.0263
     70 H           2.3100    1.2869    0.0000 H       1  UNL1        0.0230
     71 H           1.4631    1.0600    0.0000 H       1  UNL1        0.0230
     72 H           1.6900    0.2131    0.0000 H       1  UNL1        0.0230
@<TRIPOS>BOND
     1     1    22    1
     2     1    23    1
     3     2    23    2
     4     3     4    1
     5     3     7    1
     6     3    27    1
     7     3    28    1
     8     4     9    1
     9     4    29    1
    10     4    30    1
    11     5     6    1
    12     5     8    1
    13     5    31    1
    14     5    32    1
    15     6    10    1
    16     6    33    1
    17     6    34    1
    18     7    11    1
    19     7    35    1
    20     7    36    1
    21     8    12    1
    22     8    37    1
    23     8    38    1
    24     9    13    1
    25     9    39    1
    26     9    40    1
    27    10    14    1
    28    10    41    1
    29    10    42    1
    30    11    15    1
    31    11    43    1
    32    11    44    1
    33    12    16    1
    34    12    45    1
    35    12    46    1
    36    13    17    1
    37    13    47    1
    38    13    48    1
    39    14    18    1
    40    14    49    1
    41    14    50    1
    42    15    23    1
    43    15    51    1
    44    15    52    1
    45    16    24    1
    46    16    53    1
    47    16    54    1
    48    17    18    2
    49    17    55    1
    50    18    56    1
    51    19    20    1
    52    19    21    1
    53    19    57    1
    54    19    58    1
    55    20    22    1
    56    20    59    1
    57    20    60    1
    58    21    25    1
    59    21    61    1
    60    21    62    1
    61    22    63    1
    62    22    64    1
    63    24    65    1
    64    24    66    1
    65    24    67    1
    66    25    26    1
    67    25    68    1
    68    25    69    1
    69    26    70    1
    70    26    71    1
    71    26    72    1
