@<TRIPOS>MOLECULE
IMPHY011255
 114 116 0 0 0
SMALL
GASTEIGER

@<TRIPOS>ATOM
      1 O          19.8205    4.1340    0.0000 O.3     1  UNL1       -0.3652
      2 O          16.7224    5.5000    0.0000 O.3     1  UNL1       -0.4568
      3 O          17.5885    7.0000    0.0000 O.2     1  UNL1       -0.2508
      4 O          15.8564    2.0000    0.0000 O.3     1  UNL1       -0.4880
      5 O          13.2583   -3.5000    0.0000 O.2     1  UNL1       -0.2702
      6 N          14.9904   -3.5000    0.0000 N.am    1  UNL1       -0.3110
      7 C          20.3205    5.0000    0.0000 C.3     1  UNL1        0.0906
      8 C          19.3205    5.0000    0.0000 C.3     1  UNL1        0.0915
      9 C          18.4545    5.5000    0.0000 C.3     1  UNL1        0.0173
     10 C          21.1865    4.5000    0.0000 C.3     1  UNL1       -0.0336
     11 C          20.3205    6.0000    0.0000 C.3     1  UNL1       -0.0336
     12 C          17.5885    5.0000    0.0000 C.3     1  UNL1        0.1264
     13 C          17.5885    4.0000    0.0000 C.2     1  UNL1       -0.0333
     14 C          18.4545    3.5000    0.0000 C.3     1  UNL1       -0.0402
     15 C          16.7224    3.5000    0.0000 C.2     1  UNL1       -0.0447
     16 C          16.7224    6.5000    0.0000 C.2     1  UNL1        0.3076
     17 C          15.8564    7.0000    0.0000 C.3     1  UNL1        0.0450
     18 C          16.7224    2.5000    0.0000 C.3     1  UNL1        0.1082
     19 C          14.9904    6.5000    0.0000 C.3     1  UNL1       -0.0430
     20 C          14.1244    7.0000    0.0000 C.3     1  UNL1       -0.0526
     21 C          13.2583    6.5000    0.0000 C.3     1  UNL1       -0.0530
     22 C          12.3923    7.0000    0.0000 C.3     1  UNL1       -0.0531
     23 C          11.5263    6.5000    0.0000 C.3     1  UNL1       -0.0531
     24 C          10.6603    7.0000    0.0000 C.3     1  UNL1       -0.0531
     25 C           9.7942    6.5000    0.0000 C.3     1  UNL1       -0.0531
     26 C           8.9282    7.0000    0.0000 C.3     1  UNL1       -0.0531
     27 C           8.0622    6.5000    0.0000 C.3     1  UNL1       -0.0531
     28 C           7.1962    7.0000    0.0000 C.3     1  UNL1       -0.0531
     29 C           6.3301    6.5000    0.0000 C.3     1  UNL1       -0.0531
     30 C           5.4641    7.0000    0.0000 C.3     1  UNL1       -0.0531
     31 C           4.5981    6.5000    0.0000 C.3     1  UNL1       -0.0531
     32 C          15.8564    1.0000    0.0000 C.ar    1  UNL1        0.1210
     33 C           3.7320    7.0000    0.0000 C.3     1  UNL1       -0.0533
     34 C           2.8660    6.5000    0.0000 C.3     1  UNL1       -0.0559
     35 C          14.9904    0.5000    0.0000 C.ar    1  UNL1       -0.0197
     36 C          16.7224    0.5000    0.0000 C.ar    1  UNL1       -0.0197
     37 C          14.9904   -0.5000    0.0000 C.ar    1  UNL1       -0.0551
     38 C          16.7224   -0.5000    0.0000 C.ar    1  UNL1       -0.0551
     39 C           2.0000    7.0000    0.0000 C.3     1  UNL1       -0.0653
     40 C          15.8564   -1.0000    0.0000 C.ar    1  UNL1       -0.0457
     41 C          15.8564   -2.0000    0.0000 C.3     1  UNL1       -0.0120
     42 C          14.9904   -2.5000    0.0000 C.3     1  UNL1        0.0159
     43 C          14.1244   -4.0000    0.0000 C.2     1  UNL1        0.2441
     44 C          14.1244   -5.0000    0.0000 C.ar    1  UNL1        0.0367
     45 C          13.2583   -5.5000    0.0000 C.ar    1  UNL1       -0.0496
     46 C          14.9904   -5.5000    0.0000 C.ar    1  UNL1       -0.0496
     47 C          13.2583   -6.5000    0.0000 C.ar    1  UNL1       -0.0610
     48 C          14.9904   -6.5000    0.0000 C.ar    1  UNL1       -0.0610
     49 C          14.1244   -7.0000    0.0000 C.ar    1  UNL1       -0.0617
     50 H          18.8821    4.5616    0.0000 H       1  UNL1        0.0626
     51 H          18.8530    5.9750    0.0000 H       1  UNL1        0.0330
     52 H          18.0560    5.9750    0.0000 H       1  UNL1        0.0330
     53 H          20.9405    6.0000    0.0000 H       1  UNL1        0.0258
     54 H          20.8765    3.9631    0.0000 H       1  UNL1        0.0258
     55 H          21.7235    4.1900    0.0000 H       1  UNL1        0.0258
     56 H          21.4965    5.0369    0.0000 H       1  UNL1        0.0258
     57 H          20.3205    6.6200    0.0000 H       1  UNL1        0.0258
     58 H          19.7005    6.0000    0.0000 H       1  UNL1        0.0258
     59 H          17.5885    5.6200    0.0000 H       1  UNL1        0.0783
     60 H          18.1445    2.9631    0.0000 H       1  UNL1        0.0276
     61 H          18.9914    3.1900    0.0000 H       1  UNL1        0.0276
     62 H          18.7645    4.0369    0.0000 H       1  UNL1        0.0276
     63 H          16.1855    3.8100    0.0000 H       1  UNL1        0.0606
     64 H          16.2549    7.4750    0.0000 H       1  UNL1        0.0377
     65 H          15.4579    7.4750    0.0000 H       1  UNL1        0.0377
     66 H          16.9345    1.9174    0.0000 H       1  UNL1        0.0742
     67 H          17.3330    2.6077    0.0000 H       1  UNL1        0.0742
     68 H          14.5919    6.0250    0.0000 H       1  UNL1        0.0270
     69 H          15.3889    6.0250    0.0000 H       1  UNL1        0.0270
     70 H          14.5229    7.4750    0.0000 H       1  UNL1        0.0265
     71 H          13.7258    7.4750    0.0000 H       1  UNL1        0.0265
     72 H          12.8598    6.0250    0.0000 H       1  UNL1        0.0265
     73 H          13.6569    6.0250    0.0000 H       1  UNL1        0.0265
     74 H          12.7908    7.4750    0.0000 H       1  UNL1        0.0265
     75 H          11.9938    7.4750    0.0000 H       1  UNL1        0.0265
     76 H          11.1278    6.0250    0.0000 H       1  UNL1        0.0265
     77 H          11.9248    6.0250    0.0000 H       1  UNL1        0.0265
     78 H          11.0588    7.4750    0.0000 H       1  UNL1        0.0265
     79 H          10.2617    7.4750    0.0000 H       1  UNL1        0.0265
     80 H           9.3957    6.0250    0.0000 H       1  UNL1        0.0265
     81 H          10.1928    6.0250    0.0000 H       1  UNL1        0.0265
     82 H           9.3267    7.4750    0.0000 H       1  UNL1        0.0265
     83 H           8.5297    7.4750    0.0000 H       1  UNL1        0.0265
     84 H           7.6636    6.0250    0.0000 H       1  UNL1        0.0265
     85 H           8.4607    6.0250    0.0000 H       1  UNL1        0.0265
     86 H           7.5947    7.4750    0.0000 H       1  UNL1        0.0265
     87 H           6.7976    7.4750    0.0000 H       1  UNL1        0.0265
     88 H           5.9316    6.0250    0.0000 H       1  UNL1        0.0265
     89 H           6.7287    6.0250    0.0000 H       1  UNL1        0.0265
     90 H           5.8626    7.4750    0.0000 H       1  UNL1        0.0265
     91 H           5.0656    7.4750    0.0000 H       1  UNL1        0.0265
     92 H           4.1996    6.0250    0.0000 H       1  UNL1        0.0265
     93 H           4.9966    6.0250    0.0000 H       1  UNL1        0.0265
     94 H           4.1306    7.4750    0.0000 H       1  UNL1        0.0265
     95 H           3.3335    7.4750    0.0000 H       1  UNL1        0.0265
     96 H           2.4675    6.0250    0.0000 H       1  UNL1        0.0263
     97 H           3.2646    6.0250    0.0000 H       1  UNL1        0.0263
     98 H          14.4534    0.8100    0.0000 H       1  UNL1        0.0654
     99 H          17.2594    0.8100    0.0000 H       1  UNL1        0.0654
    100 H           2.3100    7.5369    0.0000 H       1  UNL1        0.0230
    101 H           1.4631    7.3100    0.0000 H       1  UNL1        0.0230
    102 H           1.6900    6.4631    0.0000 H       1  UNL1        0.0230
    103 H          14.4534   -0.8100    0.0000 H       1  UNL1        0.0621
    104 H          17.2594   -0.8100    0.0000 H       1  UNL1        0.0621
    105 H          16.0685   -2.5826    0.0000 H       1  UNL1        0.0328
    106 H          16.4670   -1.8923    0.0000 H       1  UNL1        0.0328
    107 H          14.7783   -1.9174    0.0000 H       1  UNL1        0.0465
    108 H          14.3798   -2.6077    0.0000 H       1  UNL1        0.0465
    109 H          15.5273   -3.8100    0.0000 H       1  UNL1        0.1490
    110 H          12.7214   -5.1900    0.0000 H       1  UNL1        0.0625
    111 H          15.5273   -5.1900    0.0000 H       1  UNL1        0.0625
    112 H          12.7214   -6.8100    0.0000 H       1  UNL1        0.0618
    113 H          15.5273   -6.8100    0.0000 H       1  UNL1        0.0618
    114 H          14.1244   -7.6200    0.0000 H       1  UNL1        0.0618
@<TRIPOS>BOND
     1     1     7    1
     2     1     8    1
     3     2    12    1
     4     2    16    1
     5     3    16    2
     6     4    18    1
     7     4    32    1
     8     5    43    2
     9     6    42    1
    10     6    43   am
    11     6   109    1
    12     7     8    1
    13     7    10    1
    14     7    11    1
    15     8     9    1
    16     8    50    1
    17     9    12    1
    18     9    51    1
    19     9    52    1
    20    10    54    1
    21    10    55    1
    22    10    56    1
    23    11    53    1
    24    11    57    1
    25    11    58    1
    26    12    13    1
    27    12    59    1
    28    13    14    1
    29    13    15    2
    30    14    60    1
    31    14    61    1
    32    14    62    1
    33    15    18    1
    34    15    63    1
    35    16    17    1
    36    17    19    1
    37    17    64    1
    38    17    65    1
    39    18    66    1
    40    18    67    1
    41    19    20    1
    42    19    68    1
    43    19    69    1
    44    20    21    1
    45    20    70    1
    46    20    71    1
    47    21    22    1
    48    21    72    1
    49    21    73    1
    50    22    23    1
    51    22    74    1
    52    22    75    1
    53    23    24    1
    54    23    76    1
    55    23    77    1
    56    24    25    1
    57    24    78    1
    58    24    79    1
    59    25    26    1
    60    25    80    1
    61    25    81    1
    62    26    27    1
    63    26    82    1
    64    26    83    1
    65    27    28    1
    66    27    84    1
    67    27    85    1
    68    28    29    1
    69    28    86    1
    70    28    87    1
    71    29    30    1
    72    29    88    1
    73    29    89    1
    74    30    31    1
    75    30    90    1
    76    30    91    1
    77    31    33    1
    78    31    92    1
    79    31    93    1
    80    32    35   ar
    81    32    36   ar
    82    33    34    1
    83    33    94    1
    84    33    95    1
    85    34    39    1
    86    34    96    1
    87    34    97    1
    88    35    37   ar
    89    35    98    1
    90    36    38   ar
    91    36    99    1
    92    37    40   ar
    93    37   103    1
    94    38    40   ar
    95    38   104    1
    96    39   100    1
    97    39   101    1
    98    39   102    1
    99    40    41    1
   100    41    42    1
   101    41   105    1
   102    41   106    1
   103    42   107    1
   104    42   108    1
   105    43    44    1
   106    44    45   ar
   107    44    46   ar
   108    45    47   ar
   109    45   110    1
   110    46    48   ar
   111    46   111    1
   112    47    49   ar
   113    47   112    1
   114    48    49   ar
   115    48   113    1
   116    49   114    1
