@<TRIPOS>MOLECULE
IMPHY014290
 32 32 0 0 0
SMALL
GASTEIGER

@<TRIPOS>ATOM
      1 O           4.5981    1.2500    0.0000 O.3     1  UNL1       -0.4912
      2 O           6.3301    0.2500    0.0000 O.3     1  UNL1       -0.4912
      3 C           2.8660    0.2500    0.0000 C.3     1  UNL1       -0.0179
      4 C           3.7320   -0.2500    0.0000 C.ar    1  UNL1        0.0005
      5 C           4.5981    0.2500    0.0000 C.ar    1  UNL1        0.1651
      6 C           2.0000   -0.2500    0.0000 C.3     1  UNL1       -0.0585
      7 C           2.8660    1.2500    0.0000 C.3     1  UNL1       -0.0585
      8 C           3.7320   -1.2500    0.0000 C.ar    1  UNL1       -0.0544
      9 C           5.4641   -0.2500    0.0000 C.ar    1  UNL1        0.1646
     10 C           5.4641   -1.2500    0.0000 C.ar    1  UNL1       -0.0051
     11 C           4.5981   -1.7500    0.0000 C.ar    1  UNL1       -0.0549
     12 C           6.3301   -1.7500    0.0000 C.3     1  UNL1       -0.0361
     13 C           5.4641    1.7500    0.0000 C.3     1  UNL1        0.0790
     14 C           7.1962   -0.2500    0.0000 C.3     1  UNL1        0.0790
     15 H           2.8660   -0.3700    0.0000 H       1  UNL1        0.0345
     16 H           1.6900    0.2869    0.0000 H       1  UNL1        0.0235
     17 H           1.4631   -0.5600    0.0000 H       1  UNL1        0.0235
     18 H           2.3100   -0.7869    0.0000 H       1  UNL1        0.0235
     19 H           3.4860    1.2500    0.0000 H       1  UNL1        0.0235
     20 H           2.8660    1.8700    0.0000 H       1  UNL1        0.0235
     21 H           2.2460    1.2500    0.0000 H       1  UNL1        0.0235
     22 H           3.1951   -1.5600    0.0000 H       1  UNL1        0.0622
     23 H           4.5981   -2.3700    0.0000 H       1  UNL1        0.0621
     24 H           6.0201   -2.2869    0.0000 H       1  UNL1        0.0279
     25 H           6.8671   -2.0600    0.0000 H       1  UNL1        0.0279
     26 H           6.6401   -1.2131    0.0000 H       1  UNL1        0.0279
     27 H           5.7741    1.2131    0.0000 H       1  UNL1        0.0660
     28 H           6.0010    2.0600    0.0000 H       1  UNL1        0.0660
     29 H           5.1541    2.2869    0.0000 H       1  UNL1        0.0660
     30 H           6.8862   -0.7869    0.0000 H       1  UNL1        0.0660
     31 H           7.7331   -0.5600    0.0000 H       1  UNL1        0.0660
     32 H           7.5062    0.2869    0.0000 H       1  UNL1        0.0660
@<TRIPOS>BOND
     1     1     5    1
     2     1    13    1
     3     2     9    1
     4     2    14    1
     5     3     4    1
     6     3     6    1
     7     3     7    1
     8     3    15    1
     9     4     5   ar
    10     4     8   ar
    11     5     9   ar
    12     6    16    1
    13     6    17    1
    14     6    18    1
    15     7    19    1
    16     7    20    1
    17     7    21    1
    18     8    11   ar
    19     8    22    1
    20     9    10   ar
    21    10    11   ar
    22    10    12    1
    23    11    23    1
    24    12    24    1
    25    12    25    1
    26    12    26    1
    27    13    27    1
    28    13    28    1
    29    13    29    1
    30    14    30    1
    31    14    31    1
    32    14    32    1
