@<TRIPOS>MOLECULE
IMPHY005698
 87 91 0 0 0
SMALL
GASTEIGER

@<TRIPOS>ATOM
      1 O           8.8112    2.9534    0.0000 O.3     1  UNL1       -0.3909
      2 O           2.5357   -1.6336    0.0000 O.3     1  UNL1       -0.3912
      3 O          11.4609    1.4462    0.0000 O.3     1  UNL1       -0.3756
      4 O           4.3500   -3.4114    0.0000 O.3     1  UNL1       -0.3944
      5 O          14.0531    2.9563    0.0000 O.3     1  UNL1       -0.3947
      6 C           7.0628   -0.0812    0.0000 C.3     1  UNL1       -0.0230
      7 C           6.1968    0.4188    0.0000 C.3     1  UNL1       -0.0294
      8 C           7.9288    0.4188    0.0000 C.3     1  UNL1       -0.0212
      9 C           5.2868   -0.0881    0.0000 C.3     1  UNL1       -0.0252
     10 C           7.9288    1.4188    0.0000 C.3     1  UNL1       -0.0085
     11 C           5.2787   -1.1297    0.0000 C.3     1  UNL1       -0.0255
     12 C           7.0789   -1.1228    0.0000 C.3     1  UNL1       -0.0466
     13 C           6.1968    1.4188    0.0000 C.3     1  UNL1       -0.0488
     14 C           6.1808   -1.6505    0.0000 C.3     1  UNL1       -0.0485
     15 C           7.0628    1.9188    0.0000 C.3     1  UNL1       -0.0470
     16 C           8.8228   -0.1159    0.0000 C.3     1  UNL1       -0.0461
     17 C           4.3433   -1.6794    0.0000 C.3     1  UNL1        0.0203
     18 C           8.8228    1.9534    0.0000 C.3     1  UNL1        0.0663
     19 C           9.7288    1.4396    0.0000 C.3     1  UNL1        0.0204
     20 C           4.3599    0.4760    0.0000 C.3     1  UNL1       -0.0447
     21 C           7.7056   -0.8473    0.0000 C.3     1  UNL1       -0.0588
     22 C           9.7288    0.3979    0.0000 C.3     1  UNL1       -0.0424
     23 C           8.2709   -0.5209    0.0000 C.3     1  UNL1       -0.0587
     24 C           5.2945    0.9119    0.0000 C.3     1  UNL1       -0.0590
     25 C           3.4037   -1.1369    0.0000 C.3     1  UNL1        0.0630
     26 C           3.4120   -0.0519    0.0000 C.3     1  UNL1       -0.0257
     27 C           9.7250    2.4396    0.0000 C.3     1  UNL1       -0.0406
     28 C          10.5968    0.9429    0.0000 C.3     1  UNL1        0.0560
     29 C           3.8467   -2.5473    0.0000 C.3     1  UNL1        0.0522
     30 C           4.8466   -2.5435    0.0000 C.3     1  UNL1       -0.0548
     31 C          10.5891    2.9429    0.0000 C.3     1  UNL1       -0.0256
     32 C          11.4570    2.4462    0.0000 C.3     1  UNL1        0.0634
     33 C          12.3211    2.9496    0.0000 C.3     1  UNL1        0.0056
     34 C          13.1891    2.4529    0.0000 C.3     1  UNL1        0.0491
     35 C          12.3173    3.9496    0.0000 C.3     1  UNL1       -0.0580
     36 H           6.9329    0.8438    0.0000 H       1  UNL1        0.0312
     37 H           7.9223    2.2687    0.0000 H       1  UNL1        0.0331
     38 H           5.2820   -1.9797    0.0000 H       1  UNL1        0.0313
     39 H           7.2969   -1.7031    0.0000 H       1  UNL1        0.0271
     40 H           7.6880   -1.0072    0.0000 H       1  UNL1        0.0271
     41 H           5.9847    2.0014    0.0000 H       1  UNL1        0.0268
     42 H           5.5862    1.3111    0.0000 H       1  UNL1        0.0268
     43 H           5.7835   -2.1265    0.0000 H       1  UNL1        0.0268
     44 H           6.5818   -2.1234    0.0000 H       1  UNL1        0.0268
     45 H           7.4613    2.3937    0.0000 H       1  UNL1        0.0269
     46 H           6.6643    2.3937    0.0000 H       1  UNL1        0.0269
     47 H           8.4182   -0.5857    0.0000 H       1  UNL1        0.0271
     48 H           9.2164   -0.5949    0.0000 H       1  UNL1        0.0271
     49 H           8.2817    2.2562    0.0000 H       1  UNL1        0.0602
     50 H           4.7681    0.9427    0.0000 H       1  UNL1        0.0271
     51 H           3.9700    0.9580    0.0000 H       1  UNL1        0.0271
     52 H           7.2306   -1.2458    0.0000 H       1  UNL1        0.0235
     53 H           8.1041   -1.3222    0.0000 H       1  UNL1        0.0235
     54 H           8.1805   -0.4488    0.0000 H       1  UNL1        0.0235
     55 H           9.9379   -0.1857    0.0000 H       1  UNL1        0.0272
     56 H          10.3397    0.5040    0.0000 H       1  UNL1        0.0272
     57 H           7.6884   -0.7330    0.0000 H       1  UNL1        0.0235
     58 H           8.4830   -1.1035    0.0000 H       1  UNL1        0.0235
     59 H           8.8535   -0.3088    0.0000 H       1  UNL1        0.0235
     60 H           5.9145    0.9071    0.0000 H       1  UNL1        0.0235
     61 H           5.2993    1.5319    0.0000 H       1  UNL1        0.0235
     62 H           4.6745    0.9167    0.0000 H       1  UNL1        0.0235
     63 H           3.4025   -1.7569    0.0000 H       1  UNL1        0.0599
     64 H           3.2075    0.5333    0.0000 H       1  UNL1        0.0290
     65 H           2.8004   -0.1533    0.0000 H       1  UNL1        0.0290
     66 H           9.5107    3.0214    0.0000 H       1  UNL1        0.0273
     67 H           9.1148    2.3296    0.0000 H       1  UNL1        0.0273
     68 H          10.2001    0.4664    0.0000 H       1  UNL1        0.0566
     69 H          10.9971    0.4695    0.0000 H       1  UNL1        0.0566
     70 H           3.3702   -2.1507    0.0000 H       1  UNL1        0.0563
     71 H           3.3732   -2.9477    0.0000 H       1  UNL1        0.0563
     72 H           4.3109   -2.8556    0.0000 H       1  UNL1        0.0237
     73 H           5.1587   -3.0792    0.0000 H       1  UNL1        0.0237
     74 H           5.3824   -2.2314    0.0000 H       1  UNL1        0.0237
     75 H           8.2707    3.2571    0.0000 H       1  UNL1        0.2098
     76 H          10.9858    3.4194    0.0000 H       1  UNL1        0.0290
     77 H          10.1887    3.4163    0.0000 H       1  UNL1        0.0290
     78 H          12.1948    2.0241    0.0000 H       1  UNL1        0.0599
     79 H           2.0000   -1.3215    0.0000 H       1  UNL1        0.2098
     80 H           4.0421   -3.9496    0.0000 H       1  UNL1        0.2094
     81 H          12.8568    3.2616    0.0000 H       1  UNL1        0.0345
     82 H          12.7924    1.9764    0.0000 H       1  UNL1        0.0560
     83 H          13.5894    1.9795    0.0000 H       1  UNL1        0.0560
     84 H          12.9372    3.9520    0.0000 H       1  UNL1        0.0234
     85 H          12.3149    4.5696    0.0000 H       1  UNL1        0.0234
     86 H          11.6973    3.9472    0.0000 H       1  UNL1        0.0234
     87 H          14.5913    2.6483    0.0000 H       1  UNL1        0.2094
@<TRIPOS>BOND
     1    18     1    1
     2     1    75    1
     3    25     2    1
     4     2    79    1
     5     3    28    1
     6     3    32    1
     7     4    29    1
     8     4    80    1
     9     5    34    1
    10     5    87    1
    11     6     7    1
    12     6     8    1
    13     6    12    1
    14     6    21    1
    15     7     9    1
    16     7    13    1
    17     7    36    1
    18     8    10    1
    19     8    16    1
    20     8    23    1
    21     9    11    1
    22     9    20    1
    23     9    24    1
    24    10    15    1
    25    10    18    1
    26    10    37    1
    27    11    14    1
    28    11    17    1
    29    11    38    1
    30    12    14    1
    31    12    39    1
    32    12    40    1
    33    13    15    1
    34    13    41    1
    35    13    42    1
    36    14    43    1
    37    14    44    1
    38    15    45    1
    39    15    46    1
    40    16    22    1
    41    16    47    1
    42    16    48    1
    43    17    25    1
    44    17    29    1
    45    17    30    1
    46    18    19    1
    47    18    49    1
    48    19    22    1
    49    19    27    1
    50    19    28    1
    51    20    26    1
    52    20    50    1
    53    20    51    1
    54    21    52    1
    55    21    53    1
    56    21    54    1
    57    22    55    1
    58    22    56    1
    59    23    57    1
    60    23    58    1
    61    23    59    1
    62    24    60    1
    63    24    61    1
    64    24    62    1
    65    25    26    1
    66    25    63    1
    67    26    64    1
    68    26    65    1
    69    27    31    1
    70    27    66    1
    71    27    67    1
    72    28    68    1
    73    28    69    1
    74    29    70    1
    75    29    71    1
    76    30    72    1
    77    30    73    1
    78    30    74    1
    79    31    32    1
    80    31    76    1
    81    31    77    1
    82    32    33    1
    83    32    78    1
    84    33    34    1
    85    33    35    1
    86    33    81    1
    87    34    82    1
    88    34    83    1
    89    35    84    1
    90    35    85    1
    91    35    86    1
