@<TRIPOS>MOLECULE
IMPHY017036
 25 26 0 0 0
SMALL
GASTEIGER

@<TRIPOS>ATOM
      1 O           2.0000    1.0000    0.0000 O.2     1  UNL1       -0.2924
      2 C           5.4646   -0.0000    0.0000 C.3     1  UNL1       -0.0246
      3 C           4.5981    0.5000    0.0000 C.3     1  UNL1       -0.0216
      4 C           4.5981   -0.5000    0.0000 C.3     1  UNL1       -0.0131
      5 C           3.7320    1.0000    0.0000 C.3     1  UNL1        0.0140
      6 C           5.9646   -0.8660    0.0000 C.3     1  UNL1       -0.0590
      7 C           5.9646    0.8660    0.0000 C.3     1  UNL1       -0.0590
      8 C           3.7320   -1.0000    0.0000 C.2     1  UNL1       -0.0739
      9 C           2.8660    0.5000    0.0000 C.2     1  UNL1        0.1590
     10 C           2.8660   -0.5000    0.0000 C.2     1  UNL1       -0.0117
     11 C           2.0000   -1.0000    0.0000 C.3     1  UNL1       -0.0367
     12 H           4.9080    1.0370    0.0000 H       1  UNL1        0.0316
     13 H           4.9080   -1.0370    0.0000 H       1  UNL1        0.0351
     14 H           4.1306    1.4750    0.0000 H       1  UNL1        0.0348
     15 H           3.3335    1.4750    0.0000 H       1  UNL1        0.0348
     16 H           5.4277   -1.1760    0.0000 H       1  UNL1        0.0235
     17 H           6.2746   -1.4030    0.0000 H       1  UNL1        0.0235
     18 H           6.5016   -0.5560    0.0000 H       1  UNL1        0.0235
     19 H           6.5016    0.5560    0.0000 H       1  UNL1        0.0235
     20 H           6.2746    1.4030    0.0000 H       1  UNL1        0.0235
     21 H           5.4277    1.1760    0.0000 H       1  UNL1        0.0235
     22 H           3.7320   -1.6200    0.0000 H       1  UNL1        0.0579
     23 H           1.6900   -0.4631    0.0000 H       1  UNL1        0.0278
     24 H           1.4631   -1.3100    0.0000 H       1  UNL1        0.0278
     25 H           2.3100   -1.5369    0.0000 H       1  UNL1        0.0278
@<TRIPOS>BOND
     1     1     9    2
     2     2     3    1
     3     2     4    1
     4     2     6    1
     5     2     7    1
     6     3     4    1
     7     3     5    1
     8     3    12    1
     9     4     8    1
    10     4    13    1
    11     5     9    1
    12     5    14    1
    13     5    15    1
    14     6    16    1
    15     6    17    1
    16     6    18    1
    17     7    19    1
    18     7    20    1
    19     7    21    1
    20     8    10    2
    21     8    22    1
    22     9    10    1
    23    10    11    1
    24    11    23    1
    25    11    24    1
    26    11    25    1
