@<TRIPOS>MOLECULE
IMPHY017719
 34 32 0 0 0
SMALL
GASTEIGER

@<TRIPOS>ATOM
      1 O           0.5369    2.1200    0.0000 O.3     1  UNL1       -0.3950
      2 O           4.0010    4.7400    0.0000 O.3     2  HOH2       -0.4105
      3 C           3.1350    1.6200    0.0000 C.3     1  UNL1       -0.0415
      4 C           4.0010    2.1200    0.0000 C.3     1  UNL1       -0.0469
      5 C           2.2690    2.1200    0.0000 C.3     1  UNL1       -0.0271
      6 C           4.8671    1.6200    0.0000 C.3     1  UNL1       -0.0343
      7 C           3.1350    0.6200    0.0000 C.3     1  UNL1       -0.0623
      8 C           1.4030    1.6200    0.0000 C.3     1  UNL1        0.0444
      9 C           5.7331    2.1200    0.0000 C.2     1  UNL1       -0.0853
     10 C           6.5991    1.6200    0.0000 C.2     1  UNL1       -0.0796
     11 C           7.4651    2.1200    0.0000 C.3     1  UNL1       -0.0440
     12 C           6.5991    0.6200    0.0000 C.3     1  UNL1       -0.0440
     13 H           3.6720    1.3100    0.0000 H       1  UNL1        0.0299
     14 H           4.3996    2.5950    0.0000 H       1  UNL1        0.0271
     15 H           3.6025    2.5950    0.0000 H       1  UNL1        0.0271
     16 H           2.6675    2.5950    0.0000 H       1  UNL1        0.0290
     17 H           1.8705    2.5950    0.0000 H       1  UNL1        0.0290
     18 H           4.4685    1.1450    0.0000 H       1  UNL1        0.0307
     19 H           5.2656    1.1450    0.0000 H       1  UNL1        0.0307
     20 H           2.5150    0.6200    0.0000 H       1  UNL1        0.0232
     21 H           3.1350    0.0000    0.0000 H       1  UNL1        0.0232
     22 H           3.7550    0.6200    0.0000 H       1  UNL1        0.0232
     23 H           1.0044    1.1450    0.0000 H       1  UNL1        0.0557
     24 H           1.8015    1.1450    0.0000 H       1  UNL1        0.0557
     25 H           5.7331    2.7400    0.0000 H       1  UNL1        0.0571
     26 H           0.0000    1.8100    0.0000 H       1  UNL1        0.2094
     27 H           7.7751    1.5831    0.0000 H       1  UNL1        0.0274
     28 H           8.0021    2.4300    0.0000 H       1  UNL1        0.0274
     29 H           7.1551    2.6569    0.0000 H       1  UNL1        0.0274
     30 H           5.9791    0.6200    0.0000 H       1  UNL1        0.0274
     31 H           6.5991    0.0000    0.0000 H       1  UNL1        0.0274
     32 H           7.2191    0.6200    0.0000 H       1  UNL1        0.0274
     33 H           4.5380    5.0500    0.0000 H       0  HOH0        0.2052
     34 H           3.4641    5.0500    0.0000 H       0  HOH0        0.2052
@<TRIPOS>BOND
     1     1     8    1
     2     1    26    1
     3     2    33    1
     4     2    34    1
     5     3     4    1
     6     3     5    1
     7     3     7    1
     8     3    13    1
     9     4     6    1
    10     4    14    1
    11     4    15    1
    12     5     8    1
    13     5    16    1
    14     5    17    1
    15     6     9    1
    16     6    18    1
    17     6    19    1
    18     7    20    1
    19     7    21    1
    20     7    22    1
    21     8    23    1
    22     8    24    1
    23     9    10    2
    24     9    25    1
    25    10    11    1
    26    10    12    1
    27    11    27    1
    28    11    28    1
    29    11    29    1
    30    12    30    1
    31    12    31    1
    32    12    32    1
