@<TRIPOS>MOLECULE
IMPHY004985
 86 88 0 0 0
SMALL
GASTEIGER

@<TRIPOS>ATOM
      1 O           8.0622   -0.5265    0.0000 O.3     1  UNL1       -0.5060
      2 O           4.5981   -0.5265    0.0000 O.3     1  UNL1       -0.5055
      3 O           6.3301   -3.5265    0.0000 O.3     1  UNL1       -0.5055
      4 O           5.0446    2.0056    0.0000 O.3     1  UNL1       -0.5055
      5 O           8.2997    0.8208    0.0000 O.3     1  UNL1       -0.5060
      6 O           7.6982    4.2322    0.0000 O.3     1  UNL1       -0.4939
      7 O           7.3781   -4.4059    0.0000 O.3     1  UNL1       -0.5060
      8 O          10.0318   -2.1792    0.0000 O.3     1  UNL1       -0.5055
      9 O          10.6334   -5.5906    0.0000 O.3     1  UNL1       -0.4939
     10 O           4.5981   -3.5265    0.0000 O.2     1  UNL1       -0.2918
     11 O           4.7438    3.7113    0.0000 O.2     1  UNL1       -0.2918
     12 O          11.6594   -2.7716    0.0000 O.2     1  UNL1       -0.2921
     13 C           6.3301   -0.5265    0.0000 C.ar    1  UNL1        0.0411
     14 C           7.1962   -2.0265    0.0000 C.ar    1  UNL1        0.0411
     15 C           6.3301    0.4735    0.0000 C.3     1  UNL1        0.0115
     16 C           8.0622   -2.5265    0.0000 C.3     1  UNL1        0.0115
     17 C           7.1962   -1.0265    0.0000 C.ar    1  UNL1        0.1308
     18 C           6.6722    1.4132    0.0000 C.ar    1  UNL1        0.0411
     19 C           5.4641   -2.0265    0.0000 C.ar    1  UNL1        0.1008
     20 C           5.4641   -1.0265    0.0000 C.ar    1  UNL1        0.1378
     21 C           6.3301   -2.5265    0.0000 C.ar    1  UNL1        0.1378
     22 C           8.7050   -3.2925    0.0000 C.ar    1  UNL1        0.0411
     23 C           6.0294    2.1792    0.0000 C.ar    1  UNL1        0.1378
     24 C           7.6570    1.5868    0.0000 C.ar    1  UNL1        0.1302
     25 C           6.3714    3.1189    0.0000 C.ar    1  UNL1        0.1010
     26 C           7.9990    2.5265    0.0000 C.ar    1  UNL1        0.0337
     27 C           4.5981   -2.5265    0.0000 C.2     1  UNL1        0.1702
     28 C           8.3630   -4.2323    0.0000 C.ar    1  UNL1        0.1302
     29 C           7.3562    3.2925    0.0000 C.ar    1  UNL1        0.1404
     30 C           9.6898   -3.1189    0.0000 C.ar    1  UNL1        0.1378
     31 C           9.0058   -4.9983    0.0000 C.ar    1  UNL1        0.0337
     32 C           3.7320   -2.0265    0.0000 C.3     1  UNL1        0.0105
     33 C          10.3326   -3.8850    0.0000 C.ar    1  UNL1        0.1007
     34 C           9.9906   -4.8246    0.0000 C.ar    1  UNL1        0.1404
     35 C           5.7286    3.8849    0.0000 C.2     1  UNL1        0.1702
     36 C           6.0706    4.8246    0.0000 C.3     1  UNL1        0.0105
     37 C           2.8660   -2.5265    0.0000 C.3     1  UNL1       -0.0489
     38 C           8.9838    2.7002    0.0000 C.3     1  UNL1       -0.0327
     39 C           8.6638   -5.9380    0.0000 C.3     1  UNL1       -0.0327
     40 C           5.4278    5.5907    0.0000 C.3     1  UNL1       -0.0489
     41 C          11.3174   -3.7113    0.0000 C.2     1  UNL1        0.1672
     42 C           2.0000   -2.0265    0.0000 C.3     1  UNL1       -0.0649
     43 C           5.7698    6.5304    0.0000 C.3     1  UNL1       -0.0649
     44 C          11.9602   -4.4774    0.0000 C.3     1  UNL1       -0.0012
     45 C           8.6830    4.4059    0.0000 C.3     1  UNL1        0.0788
     46 C          10.2914   -6.5304    0.0000 C.3     1  UNL1        0.0788
     47 H           5.8792    0.8989    0.0000 H       1  UNL1        0.0366
     48 H           6.9407    0.3658    0.0000 H       1  UNL1        0.0366
     49 H           8.6561   -2.3487    0.0000 H       1  UNL1        0.0366
     50 H           7.6637   -3.0015    0.0000 H       1  UNL1        0.0366
     51 H           4.1306   -1.5516    0.0000 H       1  UNL1        0.0345
     52 H           3.3335   -1.5516    0.0000 H       1  UNL1        0.0345
     53 H           6.6076    4.5146    0.0000 H       1  UNL1        0.0345
     54 H           6.4691    5.2996    0.0000 H       1  UNL1        0.0345
     55 H           2.4675   -3.0015    0.0000 H       1  UNL1        0.0267
     56 H           3.2646   -3.0015    0.0000 H       1  UNL1        0.0267
     57 H           9.0914    2.0896    0.0000 H       1  UNL1        0.0280
     58 H           9.5944    2.8078    0.0000 H       1  UNL1        0.0280
     59 H           8.8761    3.3107    0.0000 H       1  UNL1        0.0280
     60 H           8.0622    0.0935    0.0000 H       1  UNL1        0.2922
     61 H           4.5981    0.0935    0.0000 H       1  UNL1        0.2922
     62 H           6.8671   -3.8365    0.0000 H       1  UNL1        0.2922
     63 H           8.0811   -5.7259    0.0000 H       1  UNL1        0.0280
     64 H           8.4517   -6.5206    0.0000 H       1  UNL1        0.0280
     65 H           9.2464   -6.1501    0.0000 H       1  UNL1        0.0280
     66 H           4.8909    5.9007    0.0000 H       1  UNL1        0.0267
     67 H           5.0293    5.1157    0.0000 H       1  UNL1        0.0267
     68 H           4.6460    2.4805    0.0000 H       1  UNL1        0.2922
     69 H           8.9103    0.9284    0.0000 H       1  UNL1        0.2922
     70 H           2.3100   -1.4896    0.0000 H       1  UNL1        0.0230
     71 H           1.4631   -1.7165    0.0000 H       1  UNL1        0.0230
     72 H           1.6900   -2.5635    0.0000 H       1  UNL1        0.0230
     73 H           7.1660   -4.9885    0.0000 H       1  UNL1        0.2922
     74 H          10.6424   -2.0716    0.0000 H       1  UNL1        0.2922
     75 H           6.3524    6.3183    0.0000 H       1  UNL1        0.0230
     76 H           5.9819    7.1130    0.0000 H       1  UNL1        0.0230
     77 H           5.1872    6.7424    0.0000 H       1  UNL1        0.0230
     78 H          11.4852   -4.8759    0.0000 H       1  UNL1        0.0309
     79 H          12.3587   -4.9523    0.0000 H       1  UNL1        0.0309
     80 H          12.4351   -4.0788    0.0000 H       1  UNL1        0.0309
     81 H           8.7907    3.7953    0.0000 H       1  UNL1        0.0660
     82 H           9.2936    4.5136    0.0000 H       1  UNL1        0.0660
     83 H           8.5754    5.0165    0.0000 H       1  UNL1        0.0660
     84 H           9.7088   -6.3183    0.0000 H       1  UNL1        0.0660
     85 H          10.0793   -7.1130    0.0000 H       1  UNL1        0.0660
     86 H          10.8740   -6.7424    0.0000 H       1  UNL1        0.0660
@<TRIPOS>BOND
     1     1    17    1
     2     1    60    1
     3     2    20    1
     4     2    61    1
     5     3    21    1
     6     3    62    1
     7     4    23    1
     8     4    68    1
     9     5    24    1
    10     5    69    1
    11     6    29    1
    12     6    45    1
    13     7    28    1
    14     7    73    1
    15     8    30    1
    16     8    74    1
    17     9    34    1
    18     9    46    1
    19    10    27    2
    20    11    35    2
    21    12    41    2
    22    13    15    1
    23    13    17   ar
    24    13    20   ar
    25    14    16    1
    26    14    17   ar
    27    14    21   ar
    28    15    18    1
    29    15    47    1
    30    15    48    1
    31    16    22    1
    32    16    49    1
    33    16    50    1
    34    18    23   ar
    35    18    24   ar
    36    19    20   ar
    37    19    21   ar
    38    19    27    1
    39    22    28   ar
    40    22    30   ar
    41    23    25   ar
    42    24    26   ar
    43    25    29   ar
    44    25    35    1
    45    26    29   ar
    46    26    38    1
    47    27    32    1
    48    28    31   ar
    49    30    33   ar
    50    31    34   ar
    51    31    39    1
    52    32    37    1
    53    32    51    1
    54    32    52    1
    55    33    34   ar
    56    33    41    1
    57    35    36    1
    58    36    40    1
    59    36    53    1
    60    36    54    1
    61    37    42    1
    62    37    55    1
    63    37    56    1
    64    38    57    1
    65    38    58    1
    66    38    59    1
    67    39    63    1
    68    39    64    1
    69    39    65    1
    70    40    43    1
    71    40    66    1
    72    40    67    1
    73    41    44    1
    74    42    70    1
    75    42    71    1
    76    42    72    1
    77    43    75    1
    78    43    76    1
    79    43    77    1
    80    44    78    1
    81    44    79    1
    82    44    80    1
    83    45    81    1
    84    45    82    1
    85    45    83    1
    86    46    84    1
    87    46    85    1
    88    46    86    1
