@<TRIPOS>MOLECULE
IMPHY009127
 93 98 0 0 0
SMALL
GASTEIGER

@<TRIPOS>ATOM
      1 O          12.9292   -0.5219    0.0000 O.3     1  UNL1       -0.3609
      2 O           8.5991   -2.0219    0.0000 O.3     1  UNL1       -0.3313
      3 O          10.3312   -2.0219    0.0000 O.3     1  UNL1       -0.4602
      4 O           6.0010   -2.5219    0.0000 O.3     1  UNL1       -0.3461
      5 O           5.1350   -1.0219    0.0000 O.3     1  UNL1       -0.3431
      6 O          11.1972   -2.5219    0.0000 O.3     1  UNL1       -0.3862
      7 O           6.8671   -4.0219    0.0000 O.3     1  UNL1       -0.3865
      8 O          12.9292   -3.5219    0.0000 O.3     1  UNL1       -0.3865
      9 O           8.5991   -5.0219    0.0000 O.3     1  UNL1       -0.3864
     10 O          14.6613   -2.5219    0.0000 O.3     1  UNL1       -0.3865
     11 O          10.3312   -4.0219    0.0000 O.3     1  UNL1       -0.3829
     12 O           4.2690   -3.5219    0.0000 O.3     1  UNL1       -0.3841
     13 O           2.5369   -2.5219    0.0000 O.3     1  UNL1       -0.3864
     14 O           2.5369   -0.5219    0.0000 O.3     1  UNL1       -0.3866
     15 O          15.5273   -1.0219    0.0000 O.3     1  UNL1       -0.3924
     16 O          12.0632    0.9781    0.0000 O.3     1  UNL1       -0.5054
     17 O           8.5551    0.9849    0.0000 O.2     1  UNL1       -0.4544
     18 O          11.2190    2.5096    0.0000 O.2     1  UNL1       -0.2869
     19 O           6.8035    5.0198    0.0000 O.3     1  UNL1       -0.5033
     20 O           5.0753    4.0132    0.0000 O.3     1  UNL1       -0.5033
     21 C          12.0632   -1.0219    0.0000 C.3     1  UNL1        0.1193
     22 C           7.7331   -2.5219    0.0000 C.3     1  UNL1        0.1144
     23 C          12.0632   -2.0219    0.0000 C.3     1  UNL1        0.1139
     24 C           7.7331   -3.5219    0.0000 C.3     1  UNL1        0.1120
     25 C          12.9292   -2.5219    0.0000 C.3     1  UNL1        0.1121
     26 C           8.5991   -4.0219    0.0000 C.3     1  UNL1        0.1152
     27 C          13.7953   -2.0219    0.0000 C.3     1  UNL1        0.1117
     28 C           9.4651   -3.5219    0.0000 C.3     1  UNL1        0.1454
     29 C          13.7953   -1.0219    0.0000 C.3     1  UNL1        0.1108
     30 C           9.4651   -2.5219    0.0000 C.3     1  UNL1        0.2308
     31 C          11.1972   -0.5219    0.0000 C.ar    1  UNL1        0.0677
     32 C           6.8671   -2.0219    0.0000 C.3     1  UNL1        0.0796
     33 C           5.1350   -2.0219    0.0000 C.3     1  UNL1        0.1879
     34 C           4.2690   -2.5219    0.0000 C.3     1  UNL1        0.1341
     35 C           3.4030   -2.0219    0.0000 C.3     1  UNL1        0.1140
     36 C           3.4030   -1.0219    0.0000 C.3     1  UNL1        0.1095
     37 C           4.2690   -0.5219    0.0000 C.3     1  UNL1        0.0873
     38 C          10.3312   -1.0219    0.0000 C.ar    1  UNL1        0.1367
     39 C          14.6613   -0.5219    0.0000 C.3     1  UNL1        0.0729
     40 C          11.1972    0.4781    0.0000 C.ar    1  UNL1        0.1404
     41 C           9.4651   -0.5219    0.0000 C.ar    1  UNL1        0.0238
     42 C           4.2690    0.4781    0.0000 C.3     1  UNL1       -0.0361
     43 C          10.3312    0.9781    0.0000 C.ar    1  UNL1        0.1058
     44 C           9.4651    0.4781    0.0000 C.ar    1  UNL1        0.1463
     45 C          10.3472    2.0196    0.0000 C.ar    1  UNL1        0.1966
     46 C           9.4492    2.5473    0.0000 C.ar    1  UNL1        0.0288
     47 C           8.5471    2.0265    0.0000 C.ar    1  UNL1        0.1393
     48 C           7.6792    2.5232    0.0000 C.ar    1  UNL1        0.0211
     49 C           7.6753    3.5232    0.0000 C.ar    1  UNL1       -0.0059
     50 C           6.8151    2.0199    0.0000 C.ar    1  UNL1       -0.0474
     51 C           6.8074    4.0198    0.0000 C.ar    1  UNL1        0.1589
     52 C           5.9471    2.5165    0.0000 C.ar    1  UNL1       -0.0159
     53 C           5.9433    3.5165    0.0000 C.ar    1  UNL1        0.1583
     54 H          11.3271   -1.4469    0.0000 H       1  UNL1        0.0676
     55 H           7.7331   -1.9019    0.0000 H       1  UNL1        0.0647
     56 H          12.6002   -1.7119    0.0000 H       1  UNL1        0.0649
     57 H           7.7331   -4.1419    0.0000 H       1  UNL1        0.0647
     58 H          12.3923   -2.8319    0.0000 H       1  UNL1        0.0647
     59 H           9.1360   -4.3319    0.0000 H       1  UNL1        0.0648
     60 H          14.3322   -1.7119    0.0000 H       1  UNL1        0.0647
     61 H          10.0021   -3.2119    0.0000 H       1  UNL1        0.0683
     62 H          13.7953   -0.4019    0.0000 H       1  UNL1        0.0646
     63 H           9.4651   -1.9019    0.0000 H       1  UNL1        0.1084
     64 H           7.2656   -1.5470    0.0000 H       1  UNL1        0.0587
     65 H           6.4685   -1.5470    0.0000 H       1  UNL1        0.0587
     66 H           5.1350   -2.6419    0.0000 H       1  UNL1        0.0937
     67 H           3.7320   -2.8319    0.0000 H       1  UNL1        0.0671
     68 H           2.8660   -1.7119    0.0000 H       1  UNL1        0.0648
     69 H           3.4030   -0.4019    0.0000 H       1  UNL1        0.0646
     70 H           4.8059   -0.2119    0.0000 H       1  UNL1        0.0621
     71 H          15.0598   -0.0470    0.0000 H       1  UNL1        0.0584
     72 H          14.2628   -0.0470    0.0000 H       1  UNL1        0.0584
     73 H          11.1972   -3.1419    0.0000 H       1  UNL1        0.2100
     74 H           6.8671   -4.6419    0.0000 H       1  UNL1        0.2100
     75 H           8.9282   -0.8319    0.0000 H       1  UNL1        0.0691
     76 H          13.4662   -3.8319    0.0000 H       1  UNL1        0.2100
     77 H           8.0622   -5.3319    0.0000 H       1  UNL1        0.2100
     78 H           4.8890    0.4781    0.0000 H       1  UNL1        0.0255
     79 H           4.2690    1.0981    0.0000 H       1  UNL1        0.0255
     80 H           3.6490    0.4781    0.0000 H       1  UNL1        0.0255
     81 H          14.6613   -3.1419    0.0000 H       1  UNL1        0.2100
     82 H          10.3312   -4.6419    0.0000 H       1  UNL1        0.2102
     83 H           3.7320   -3.8319    0.0000 H       1  UNL1        0.2101
     84 H           2.0000   -2.2119    0.0000 H       1  UNL1        0.2100
     85 H           2.5369    0.0981    0.0000 H       1  UNL1        0.2100
     86 H          16.0643   -0.7119    0.0000 H       1  UNL1        0.2095
     87 H          12.0632    1.5981    0.0000 H       1  UNL1        0.2922
     88 H           9.4516    3.1674    0.0000 H       1  UNL1        0.0693
     89 H           8.2110    3.8353    0.0000 H       1  UNL1        0.0662
     90 H           6.8175    1.3999    0.0000 H       1  UNL1        0.0626
     91 H           5.4114    2.2044    0.0000 H       1  UNL1        0.0655
     92 H           7.3392    5.3319    0.0000 H       1  UNL1        0.2923
     93 H           4.5396    3.7011    0.0000 H       1  UNL1        0.2923
@<TRIPOS>BOND
     1     1    21    1
     2     1    29    1
     3     2    22    1
     4     2    30    1
     5    30     3    1
     6     3    38    1
     7     4    32    1
     8    33     4    1
     9     5    33    1
    10     5    37    1
    11     6    23    1
    12     6    73    1
    13    24     7    1
    14     7    74    1
    15    25     8    1
    16     8    76    1
    17    26     9    1
    18     9    77    1
    19    27    10    1
    20    10    81    1
    21    11    28    1
    22    11    82    1
    23    12    34    1
    24    12    83    1
    25    35    13    1
    26    13    84    1
    27    36    14    1
    28    14    85    1
    29    15    39    1
    30    15    86    1
    31    16    40    1
    32    16    87    1
    33    17    44   ar
    34    17    47   ar
    35    18    45    2
    36    19    51    1
    37    19    92    1
    38    20    53    1
    39    20    93    1
    40    21    23    1
    41    21    31    1
    42    21    54    1
    43    22    24    1
    44    22    32    1
    45    22    55    1
    46    23    25    1
    47    23    56    1
    48    24    26    1
    49    24    57    1
    50    25    27    1
    51    25    58    1
    52    26    28    1
    53    26    59    1
    54    27    29    1
    55    27    60    1
    56    28    30    1
    57    28    61    1
    58    29    39    1
    59    29    62    1
    60    30    63    1
    61    31    38   ar
    62    31    40   ar
    63    32    64    1
    64    32    65    1
    65    33    34    1
    66    33    66    1
    67    34    35    1
    68    34    67    1
    69    35    36    1
    70    35    68    1
    71    36    37    1
    72    36    69    1
    73    37    42    1
    74    37    70    1
    75    38    41   ar
    76    39    71    1
    77    39    72    1
    78    40    43   ar
    79    41    44   ar
    80    41    75    1
    81    42    78    1
    82    42    79    1
    83    42    80    1
    84    43    44   ar
    85    43    45   ar
    86    45    46   ar
    87    46    47   ar
    88    46    88    1
    89    47    48    1
    90    48    49   ar
    91    48    50   ar
    92    49    51   ar
    93    49    89    1
    94    50    52   ar
    95    50    90    1
    96    51    53   ar
    97    52    53   ar
    98    52    91    1
