@<TRIPOS>MOLECULE
IMPHY001653
 45 46 0 0 0
SMALL
GASTEIGER

@<TRIPOS>ATOM
      1 O           4.2690   -1.0950    0.0000 O.3     1  UNL1       -0.3405
      2 O           6.0010   -1.0950    0.0000 O.3     1  UNL1       -0.3446
      3 O           4.2690   -4.0950    0.0000 O.3     1  UNL1       -0.3864
      4 O           2.5369   -3.0950    0.0000 O.3     1  UNL1       -0.3865
      5 O           6.0010   -3.0950    0.0000 O.3     1  UNL1       -0.3841
      6 O           2.5369   -0.0950    0.0000 O.3     1  UNL1       -0.3924
      7 O          10.3312    3.4050    0.0000 O.3     1  UNL1       -0.4951
      8 C           4.2690   -3.0950    0.0000 C.3     1  UNL1        0.1141
      9 C           3.4030   -2.5950    0.0000 C.3     1  UNL1        0.1119
     10 C           5.1350   -2.5950    0.0000 C.3     1  UNL1        0.1341
     11 C           3.4030   -1.5950    0.0000 C.3     1  UNL1        0.1130
     12 C           5.1350   -1.5950    0.0000 C.3     1  UNL1        0.1882
     13 C           2.5369   -1.0950    0.0000 C.3     1  UNL1        0.0730
     14 C           6.0010   -0.0950    0.0000 C.3     1  UNL1        0.0693
     15 C           6.8671    0.4050    0.0000 C.2     1  UNL1       -0.0580
     16 C           6.8671    1.4050    0.0000 C.2     1  UNL1       -0.0564
     17 C           7.7331    1.9050    0.0000 C.ar    1  UNL1       -0.0250
     18 C           8.5991    1.4050    0.0000 C.ar    1  UNL1       -0.0511
     19 C           7.7331    2.9050    0.0000 C.ar    1  UNL1       -0.0511
     20 C           9.4651    1.9050    0.0000 C.ar    1  UNL1       -0.0194
     21 C           8.5991    3.4050    0.0000 C.ar    1  UNL1       -0.0194
     22 C           9.4651    2.9050    0.0000 C.ar    1  UNL1        0.1201
     23 C          10.3312    4.4050    0.0000 C.3     1  UNL1        0.0788
     24 H           4.8059   -3.4050    0.0000 H       1  UNL1        0.0648
     25 H           3.4030   -3.2150    0.0000 H       1  UNL1        0.0647
     26 H           5.6720   -2.2850    0.0000 H       1  UNL1        0.0671
     27 H           3.4030   -0.9750    0.0000 H       1  UNL1        0.0647
     28 H           5.1350   -0.9750    0.0000 H       1  UNL1        0.0938
     29 H           1.9264   -0.9873    0.0000 H       1  UNL1        0.0584
     30 H           2.3249   -1.6776    0.0000 H       1  UNL1        0.0584
     31 H           3.7320   -4.4050    0.0000 H       1  UNL1        0.2100
     32 H           2.0000   -2.7850    0.0000 H       1  UNL1        0.2100
     33 H           6.5380   -2.7850    0.0000 H       1  UNL1        0.2101
     34 H           5.7890    0.4876    0.0000 H       1  UNL1        0.0605
     35 H           5.3905   -0.2027    0.0000 H       1  UNL1        0.0605
     36 H           2.0000    0.2150    0.0000 H       1  UNL1        0.2095
     37 H           7.4040    0.0950    0.0000 H       1  UNL1        0.0595
     38 H           6.3301    1.7150    0.0000 H       1  UNL1        0.0621
     39 H           8.5991    0.7850    0.0000 H       1  UNL1        0.0625
     40 H           7.1962    3.2150    0.0000 H       1  UNL1        0.0625
     41 H          10.0021    1.5950    0.0000 H       1  UNL1        0.0654
     42 H           8.5991    4.0250    0.0000 H       1  UNL1        0.0654
     43 H          10.9512    4.4050    0.0000 H       1  UNL1        0.0660
     44 H          10.3312    5.0250    0.0000 H       1  UNL1        0.0660
     45 H           9.7112    4.4050    0.0000 H       1  UNL1        0.0660
@<TRIPOS>BOND
     1     1    11    1
     2     1    12    1
     3    12     2    1
     4     2    14    1
     5     8     3    1
     6     3    31    1
     7     9     4    1
     8     4    32    1
     9    10     5    1
    10     5    33    1
    11     6    13    1
    12     6    36    1
    13     7    22    1
    14     7    23    1
    15     8     9    1
    16     8    10    1
    17     8    24    1
    18     9    11    1
    19     9    25    1
    20    10    12    1
    21    10    26    1
    22    11    13    1
    23    11    27    1
    24    12    28    1
    25    13    29    1
    26    13    30    1
    27    14    15    1
    28    14    34    1
    29    14    35    1
    30    15    16    2
    31    15    37    1
    32    16    17    1
    33    16    38    1
    34    17    18   ar
    35    17    19   ar
    36    18    20   ar
    37    18    39    1
    38    19    21   ar
    39    19    40    1
    40    20    22   ar
    41    20    41    1
    42    21    22   ar
    43    21    42    1
    44    23    43    1
    45    23    44    1
    46    23    45    1
