@<TRIPOS>MOLECULE
IMPHY002719
 42 45 0 0 0
SMALL
GASTEIGER

@<TRIPOS>ATOM
      1 O           7.2304   -2.5327    0.0000 O.2     1  UNL1       -0.4618
      2 O          10.8026   -0.6933    0.0000 O.3     1  UNL1       -0.4489
      3 O          10.8026   -2.3028    0.0000 O.3     1  UNL1       -0.4523
      4 O           8.9904    0.5019    0.0000 O.3     1  UNL1       -0.4905
      5 O           7.2419    0.5365    0.0000 O.2     1  UNL1       -0.2863
      6 O           4.6038    2.0294    0.0000 O.3     1  UNL1       -0.4914
      7 O           2.8680    1.0361    0.0000 O.3     1  UNL1       -0.4915
      8 C           8.1243   -0.9981    0.0000 C.ar    1  UNL1        0.1099
      9 C           8.1243   -1.9981    0.0000 C.ar    1  UNL1        0.1457
     10 C           8.9904   -0.4981    0.0000 C.ar    1  UNL1        0.1797
     11 C           9.8564   -0.9981    0.0000 C.ar    1  UNL1        0.2085
     12 C           9.8564   -1.9981    0.0000 C.ar    1  UNL1        0.1734
     13 C           6.3243   -0.9773    0.0000 C.ar    1  UNL1        0.0645
     14 C           7.2304   -0.4634    0.0000 C.ar    1  UNL1        0.2038
     15 C           8.9904   -2.4981    0.0000 C.ar    1  UNL1        0.0271
     16 C           5.4602   -0.4739    0.0000 C.ar    1  UNL1       -0.0076
     17 C           6.3243   -2.0189    0.0000 C.ar    1  UNL1        0.1038
     18 C          11.3862   -1.4981    0.0000 C.3     1  UNL1        0.2334
     19 C           5.4641    0.5261    0.0000 C.ar    1  UNL1       -0.0084
     20 C           4.5923   -0.9706    0.0000 C.ar    1  UNL1       -0.0501
     21 C           4.6000    1.0294    0.0000 C.ar    1  UNL1        0.1621
     22 C           3.7320    0.5327    0.0000 C.ar    1  UNL1        0.1615
     23 C           3.7282   -0.4672    0.0000 C.ar    1  UNL1       -0.0157
     24 C           9.8564    1.0019    0.0000 C.3     1  UNL1        0.0790
     25 C           3.7398    2.5327    0.0000 C.3     1  UNL1        0.0790
     26 C           2.0000    0.5394    0.0000 C.3     1  UNL1        0.0790
     27 H           8.9904   -3.1181    0.0000 H       1  UNL1        0.0692
     28 H           5.7886   -2.3310    0.0000 H       1  UNL1        0.1037
     29 H          11.8471   -1.9128    0.0000 H       1  UNL1        0.1166
     30 H          11.8471   -1.0833    0.0000 H       1  UNL1        0.1166
     31 H           6.0022    0.8340    0.0000 H       1  UNL1        0.0661
     32 H           4.5899   -1.5906    0.0000 H       1  UNL1        0.0625
     33 H           3.1901   -0.7752    0.0000 H       1  UNL1        0.0655
     34 H          10.1664    0.4650    0.0000 H       1  UNL1        0.0660
     35 H          10.3933    1.3119    0.0000 H       1  UNL1        0.0660
     36 H           9.5464    1.5389    0.0000 H       1  UNL1        0.0660
     37 H           4.0518    3.0685    0.0000 H       1  UNL1        0.0660
     38 H           3.2040    2.8448    0.0000 H       1  UNL1        0.0660
     39 H           3.4277    1.9970    0.0000 H       1  UNL1        0.0660
     40 H           1.6921    1.0776    0.0000 H       1  UNL1        0.0660
     41 H           1.4619    0.2315    0.0000 H       1  UNL1        0.0660
     42 H           2.3079    0.0013    0.0000 H       1  UNL1        0.0660
@<TRIPOS>BOND
     1     1     9   ar
     2     1    17   ar
     3     2    11    1
     4     2    18    1
     5     3    12    1
     6     3    18    1
     7     4    10    1
     8     4    24    1
     9     5    14    2
    10     6    21    1
    11     6    25    1
    12     7    22    1
    13     7    26    1
    14     8     9   ar
    15     8    10   ar
    16     8    14   ar
    17     9    15   ar
    18    10    11   ar
    19    11    12   ar
    20    12    15   ar
    21    13    14   ar
    22    13    16    1
    23    13    17   ar
    24    15    27    1
    25    16    19   ar
    26    16    20   ar
    27    17    28    1
    28    18    29    1
    29    18    30    1
    30    19    21   ar
    31    19    31    1
    32    20    23   ar
    33    20    32    1
    34    21    22   ar
    35    22    23   ar
    36    23    33    1
    37    24    34    1
    38    24    35    1
    39    24    36    1
    40    25    37    1
    41    25    38    1
    42    25    39    1
    43    26    40    1
    44    26    41    1
    45    26    42    1
