@<TRIPOS>MOLECULE
IMPHY010790
 27 30 0 0 0
SMALL
GASTEIGER

@<TRIPOS>ATOM
      1 N           6.9046   -3.3325    0.0000 N.3     1  UNL1       -0.2712
      2 C           6.9046   -1.9955    0.0000 C.3     1  UNL1        0.1100
      3 C           5.7471   -1.3370    0.0000 C.3     1  UNL1        0.1899
      4 C           4.5997   -1.9955    0.0000 C.ar    1  UNL1        0.0094
      5 C           4.5997   -3.3325    0.0000 C.ar    1  UNL1       -0.0111
      6 C           5.7471   -4.0010    0.0000 C.3     1  UNL1        0.0496
      7 C           5.7471   -5.3281    0.0000 C.3     1  UNL1        0.0413
      8 C           4.5997   -5.9766    0.0000 C.ar    1  UNL1       -0.0176
      9 C           3.4423   -5.3281    0.0000 C.ar    1  UNL1        0.0020
     10 C           3.4423   -4.0010    0.0000 C.ar    1  UNL1        0.0337
     11 C           2.2949   -3.3325    0.0000 C.ar    1  UNL1        0.1770
     12 C           2.2949   -1.9955    0.0000 C.ar    1  UNL1        0.2290
     13 C           3.4423   -1.3370    0.0000 C.ar    1  UNL1        0.0431
     14 C           4.5997   -7.3136    0.0000 C.ar    1  UNL1        0.0358
     15 C           3.4423   -7.9821    0.0000 C.ar    1  UNL1        0.1721
     16 C           2.2949   -7.3136    0.0000 C.ar    1  UNL1        0.1724
     17 C           2.2949   -5.9766    0.0000 C.ar    1  UNL1        0.0398
     18 C           8.0520   -4.0010    0.0000 C.3     1  UNL1        0.0896
     19 O           5.7471    0.0000    0.0000 O.3     1  UNL1       -0.2168
     20 O           1.1375   -4.0010    0.0000 O.3     1  UNL1       -0.4682
     21 C           0.0000   -3.3325    0.0000 C.3     1  UNL1        0.2526
     22 O           1.1375   -1.3370    0.0000 O.3     1  UNL1       -0.2833
     23 O           3.4423   -9.3092    0.0000 O.3     1  UNL1       -0.4684
     24 C           2.2949   -9.9777    0.0000 C.3     1  UNL1        0.2526
     25 O           1.1375   -7.9821    0.0000 O.3     1  UNL1       -0.4684
     26 C           0.0000   -7.3136    0.0000 C.3     1  UNL1        0.2526
     27 H           6.9046   -4.6596    0.0000 H       1  UNL1        0.0522
@<TRIPOS>BOND
     1     1     2    1
     2     1     6    1
     3     1    18    1
     4     2     3    1
     5     3     4    1
     6     3    19    1
     7     4    13   ar
     8     4     5   ar
     9     5    10   ar
    10     5     6    1
    11     6     7    1
    12     6    27    1
    13     7     8    1
    14     8    14   ar
    15     8     9   ar
    16     9    10    1
    17     9    17   ar
    18    10    11   ar
    19    11    12   ar
    20    11    20    1
    21    12    13   ar
    22    12    22    1
    23    14    15   ar
    24    15    23    1
    25    15    16   ar
    26    16    17   ar
    27    16    25    1
    28    20    21    1
    29    23    24    1
    30    25    26    1
