@<TRIPOS>MOLECULE
IMPHY014294
 31 33 0 0 0
SMALL
GASTEIGER

@<TRIPOS>ATOM
      1 O           4.6660   -1.7550    0.0000 O.2     1  UNL1       -0.4545
      2 O           6.4144    1.2796    0.0000 O.3     1  UNL1       -0.4906
      3 O           8.1962    0.2692    0.0000 O.3     1  UNL1       -0.4914
      4 O           4.6660    1.2450    0.0000 O.2     1  UNL1       -0.2863
      5 C           5.5321   -0.2550    0.0000 C.ar    1  UNL1        0.1097
      6 C           5.5321   -1.2550    0.0000 C.ar    1  UNL1        0.1430
      7 C           3.8000   -0.2550    0.0000 C.ar    1  UNL1        0.0647
      8 C           4.6660    0.2450    0.0000 C.ar    1  UNL1        0.2038
      9 C           6.4260    0.2797    0.0000 C.ar    1  UNL1        0.1758
     10 C           3.8000   -1.2550    0.0000 C.ar    1  UNL1        0.1393
     11 C           7.3321   -0.2341    0.0000 C.ar    1  UNL1        0.1624
     12 C           6.4260   -1.7896    0.0000 C.ar    1  UNL1       -0.0149
     13 C           7.3321   -1.2758    0.0000 C.ar    1  UNL1       -0.0128
     14 C           2.9061    0.2797    0.0000 C.ar    1  UNL1       -0.0474
     15 C           2.9061   -1.7896    0.0000 C.ar    1  UNL1       -0.0186
     16 C           2.0000   -0.2341    0.0000 C.ar    1  UNL1       -0.0609
     17 C           2.0000   -1.2758    0.0000 C.ar    1  UNL1       -0.0582
     18 C           7.2746    1.7896    0.0000 C.3     1  UNL1        0.0790
     19 C           9.0641   -0.2275    0.0000 C.3     1  UNL1        0.0790
     20 H           6.4188   -2.4096    0.0000 H       1  UNL1        0.0656
     21 H           7.8678   -1.5878    0.0000 H       1  UNL1        0.0656
     22 H           2.9132    0.8997    0.0000 H       1  UNL1        0.0626
     23 H           2.9132   -2.4096    0.0000 H       1  UNL1        0.0654
     24 H           1.4643    0.0779    0.0000 H       1  UNL1        0.0618
     25 H           1.4643   -1.5878    0.0000 H       1  UNL1        0.0619
     26 H           7.5908    1.2563    0.0000 H       1  UNL1        0.0660
     27 H           7.8079    2.1058    0.0000 H       1  UNL1        0.0660
     28 H           6.9584    2.3229    0.0000 H       1  UNL1        0.0660
     29 H           8.7562   -0.7656    0.0000 H       1  UNL1        0.0660
     30 H           9.6022   -0.5354    0.0000 H       1  UNL1        0.0660
     31 H           9.3720    0.3107    0.0000 H       1  UNL1        0.0660
@<TRIPOS>BOND
     1     1     6   ar
     2     1    10   ar
     3     2     9    1
     4     2    18    1
     5     3    11    1
     6     3    19    1
     7     4     8    2
     8     5     6   ar
     9     5     8   ar
    10     5     9   ar
    11     6    12   ar
    12     7     8   ar
    13     7    10   ar
    14     7    14   ar
    15     9    11   ar
    16    10    15   ar
    17    11    13   ar
    18    12    13   ar
    19    12    20    1
    20    13    21    1
    21    14    16   ar
    22    14    22    1
    23    15    17   ar
    24    15    23    1
    25    16    17   ar
    26    16    24    1
    27    17    25    1
    28    18    26    1
    29    18    27    1
    30    18    28    1
    31    19    29    1
    32    19    30    1
    33    19    31    1
