@<TRIPOS>MOLECULE
IMPHY017807
 41 42 0 0 0
SMALL
GASTEIGER

@<TRIPOS>ATOM
      1 O           3.6961   -0.6424    0.0000 O.3     1  UNL1       -0.4600
      2 O           4.6139   -2.1113    0.0000 O.2     1  UNL1       -0.2505
      3 C           7.1292    1.7613    0.0000 C.3     1  UNL1       -0.0251
      4 C           5.9891    2.7184    0.0000 C.3     1  UNL1       -0.0313
      5 C           5.7303    1.7525    0.0000 C.3     1  UNL1       -0.0111
      6 C           5.2525    3.7011    0.0000 C.3     1  UNL1       -0.0423
      7 C           3.9558    2.4073    0.0000 C.3     1  UNL1       -0.0310
      8 C           4.5092    0.8869    0.0000 C.2     1  UNL1       -0.0329
      9 C           7.6292    0.8953    0.0000 C.3     1  UNL1       -0.0590
     10 C           7.9952    2.2613    0.0000 C.3     1  UNL1       -0.0590
     11 C           3.6802    1.4461    0.0000 C.2     1  UNL1       -0.0810
     12 C           4.5441   -0.1125    0.0000 C.3     1  UNL1        0.1139
     13 C           3.7310   -1.6418    0.0000 C.2     1  UNL1        0.3102
     14 C           2.8830   -2.1718    0.0000 C.3     1  UNL1        0.0534
     15 C           2.9178   -3.1712    0.0000 C.3     1  UNL1       -0.0432
     16 C           2.0000   -1.7023    0.0000 C.3     1  UNL1       -0.0523
     17 C           2.0698   -3.7011    0.0000 C.3     1  UNL1       -0.0645
     18 H           6.4394    3.1446    0.0000 H       1  UNL1        0.0309
     19 H           5.9203    1.1624    0.0000 H       1  UNL1        0.0352
     20 H           5.5703    4.2334    0.0000 H       1  UNL1        0.0274
     21 H           4.6393    3.7930    0.0000 H       1  UNL1        0.0274
     22 H           3.9508    3.0273    0.0000 H       1  UNL1        0.0310
     23 H           3.3415    2.4911    0.0000 H       1  UNL1        0.0310
     24 H           7.0923    0.5853    0.0000 H       1  UNL1        0.0235
     25 H           7.9392    0.3584    0.0000 H       1  UNL1        0.0235
     26 H           8.1661    1.2053    0.0000 H       1  UNL1        0.0235
     27 H           8.3052    1.7244    0.0000 H       1  UNL1        0.0235
     28 H           8.5322    2.5713    0.0000 H       1  UNL1        0.0235
     29 H           7.6852    2.7983    0.0000 H       1  UNL1        0.0235
     30 H           3.0976    1.2340    0.0000 H       1  UNL1        0.0573
     31 H           4.7764   -0.6874    0.0000 H       1  UNL1        0.0745
     32 H           5.1506    0.0164    0.0000 H       1  UNL1        0.0745
     33 H           2.8613   -1.5521    0.0000 H       1  UNL1        0.0410
     34 H           3.1501   -3.7460    0.0000 H       1  UNL1        0.0270
     35 H           3.5243   -3.0422    0.0000 H       1  UNL1        0.0270
     36 H           2.2911   -1.1549    0.0000 H       1  UNL1        0.0238
     37 H           1.4526   -1.4112    0.0000 H       1  UNL1        0.0238
     38 H           1.7089   -2.2497    0.0000 H       1  UNL1        0.0238
     39 H           1.7412   -3.1753    0.0000 H       1  UNL1        0.0230
     40 H           1.5440   -4.0296    0.0000 H       1  UNL1        0.0230
     41 H           2.3984   -4.2269    0.0000 H       1  UNL1        0.0230
@<TRIPOS>BOND
     1     1    12    1
     2     1    13    1
     3     2    13    2
     4     3     4    1
     5     3     5    1
     6     3     9    1
     7     3    10    1
     8     4     6    1
     9     4     7    1
    10     4    18    1
    11     5     6    1
    12     5     8    1
    13     5    19    1
    14     6    20    1
    15     6    21    1
    16     7    11    1
    17     7    22    1
    18     7    23    1
    19     8    11    2
    20     8    12    1
    21     9    24    1
    22     9    25    1
    23     9    26    1
    24    10    27    1
    25    10    28    1
    26    10    29    1
    27    11    30    1
    28    12    31    1
    29    12    32    1
    30    13    14    1
    31    14    15    1
    32    14    16    1
    33    14    33    1
    34    15    17    1
    35    15    34    1
    36    15    35    1
    37    16    36    1
    38    16    37    1
    39    16    38    1
    40    17    39    1
    41    17    40    1
    42    17    41    1
