@<TRIPOS>MOLECULE
IMPHY007569
 80 81 0 0 0
SMALL
GASTEIGER

@<TRIPOS>ATOM
      1 O           2.8660    0.5779    0.0000 O.3     1  UNL1       -0.4862
      2 O           3.7226    0.0613    0.0000 O.2     1  UNL1       -0.2736
      3 O           6.9641    0.2119    0.0000 O.2     1  UNL1       -0.2741
      4 O           3.7118   -2.8852    0.0000 O.2     1  UNL1       -0.2734
      5 N           5.4641    1.0780    0.0000 N.am    1  UNL1       -0.2997
      6 N           5.4641   -0.9221    0.0000 N.am    1  UNL1       -0.3021
      7 N           7.9641    1.9440    0.0000 N.3     1  UNL1       -0.2976
      8 N           4.5981   -3.4220    0.0000 N.am    1  UNL1       -0.2904
      9 C           3.7320    1.0780    0.0000 C.3     1  UNL1        0.1292
     10 C           4.5981    0.5779    0.0000 C.3     1  UNL1        0.1368
     11 C           3.7320    2.0780    0.0000 C.3     1  UNL1       -0.0073
     12 C           6.9641    1.9440    0.0000 C.3     1  UNL1        0.0870
     13 C           5.4641   -1.9220    0.0000 C.3     1  UNL1        0.1023
     14 C           6.3301   -2.4220    0.0000 C.3     1  UNL1       -0.0171
     15 C           6.4641    2.8100    0.0000 C.3     1  UNL1       -0.0265
     16 C           4.5981   -0.4221    0.0000 C.2     1  UNL1        0.2376
     17 C           6.9641    3.6760    0.0000 C.3     1  UNL1       -0.0449
     18 C           6.4641    1.0780    0.0000 C.2     1  UNL1        0.2309
     19 C           2.8660    2.5779    0.0000 C.3     1  UNL1       -0.0592
     20 C           4.5981    2.5780    0.0000 C.3     1  UNL1       -0.0592
     21 C           7.1962   -1.9220    0.0000 C.3     1  UNL1       -0.0512
     22 C           6.3301   -3.4220    0.0000 C.3     1  UNL1       -0.0603
     23 C           4.5981   -2.4220    0.0000 C.2     1  UNL1        0.2374
     24 C           6.4641    4.5420    0.0000 C.3     1  UNL1       -0.0626
     25 C           7.9641    3.6760    0.0000 C.3     1  UNL1       -0.0626
     26 C           2.8660   -0.4221    0.0000 C.ar    1  UNL1        0.1211
     27 C           8.0622   -2.4220    0.0000 C.3     1  UNL1       -0.0650
     28 C           8.4641    2.8100    0.0000 C.3     1  UNL1       -0.0123
     29 C           8.4641    1.0780    0.0000 C.3     1  UNL1       -0.0123
     30 C           3.7320   -0.9221    0.0000 C.ar    1  UNL1       -0.0194
     31 C           2.0000   -0.9221    0.0000 C.ar    1  UNL1       -0.0194
     32 C           2.8660   -2.4220    0.0000 C.ar    1  UNL1       -0.0236
     33 C           3.7320   -3.9220    0.0000 C.2     1  UNL1       -0.0031
     34 C           3.7320   -1.9220    0.0000 C.ar    1  UNL1       -0.0511
     35 C           2.0000   -1.9220    0.0000 C.ar    1  UNL1       -0.0511
     36 C           2.8660   -3.4220    0.0000 C.2     1  UNL1       -0.0407
     37 H           5.1350    0.2679    0.0000 H       1  UNL1        0.0632
     38 H           3.1951    1.3880    0.0000 H       1  UNL1        0.0759
     39 H           4.2690    1.7680    0.0000 H       1  UNL1        0.0332
     40 H           7.2741    1.4070    0.0000 H       1  UNL1        0.0558
     41 H           6.2002   -1.4970    0.0000 H       1  UNL1        0.0597
     42 H           6.8671   -2.7320    0.0000 H       1  UNL1        0.0321
     43 H           5.9892    3.2085    0.0000 H       1  UNL1        0.0288
     44 H           5.9892    2.4115    0.0000 H       1  UNL1        0.0288
     45 H           5.4641    1.6980    0.0000 H       1  UNL1        0.1496
     46 H           7.2741    3.1391    0.0000 H       1  UNL1        0.0296
     47 H           6.0841   -0.9221    0.0000 H       1  UNL1        0.1495
     48 H           3.1760    3.1149    0.0000 H       1  UNL1        0.0233
     49 H           2.3291    2.8879    0.0000 H       1  UNL1        0.0233
     50 H           2.5560    2.0410    0.0000 H       1  UNL1        0.0233
     51 H           4.9081    2.0410    0.0000 H       1  UNL1        0.0233
     52 H           5.1350    2.8880    0.0000 H       1  UNL1        0.0233
     53 H           4.2881    3.1149    0.0000 H       1  UNL1        0.0233
     54 H           7.5947   -1.4471    0.0000 H       1  UNL1        0.0266
     55 H           6.7976   -1.4471    0.0000 H       1  UNL1        0.0266
     56 H           5.7101   -3.4220    0.0000 H       1  UNL1        0.0233
     57 H           6.3301   -4.0420    0.0000 H       1  UNL1        0.0233
     58 H           6.9501   -3.4220    0.0000 H       1  UNL1        0.0233
     59 H           7.9641    3.0560    0.0000 H       1  UNL1        0.0232
     60 H           7.0010    4.8520    0.0000 H       1  UNL1        0.0232
     61 H           6.1541    5.0790    0.0000 H       1  UNL1        0.0232
     62 H           5.9272    4.2320    0.0000 H       1  UNL1        0.0232
     63 H           8.5841    3.6760    0.0000 H       1  UNL1        0.0232
     64 H           7.9641    4.2960    0.0000 H       1  UNL1        0.0232
     65 H           7.7522   -2.9590    0.0000 H       1  UNL1        0.0230
     66 H           8.5991   -2.7320    0.0000 H       1  UNL1        0.0230
     67 H           8.3722   -1.8851    0.0000 H       1  UNL1        0.0230
     68 H           9.0010    2.5000    0.0000 H       1  UNL1        0.0391
     69 H           8.7741    3.3469    0.0000 H       1  UNL1        0.0391
     70 H           7.9272    3.1200    0.0000 H       1  UNL1        0.0391
     71 H           7.9272    0.7680    0.0000 H       1  UNL1        0.0391
     72 H           8.7741    0.5410    0.0000 H       1  UNL1        0.0391
     73 H           9.0010    1.3880    0.0000 H       1  UNL1        0.0391
     74 H           5.1350   -3.7320    0.0000 H       1  UNL1        0.1543
     75 H           4.2690   -0.6121    0.0000 H       1  UNL1        0.0654
     76 H           1.4631   -0.6121    0.0000 H       1  UNL1        0.0654
     77 H           3.7320   -4.5420    0.0000 H       1  UNL1        0.0782
     78 H           4.2690   -2.2320    0.0000 H       1  UNL1        0.0625
     79 H           1.4631   -2.2320    0.0000 H       1  UNL1        0.0625
     80 H           2.3291   -3.7320    0.0000 H       1  UNL1        0.0636
@<TRIPOS>BOND
     1     1     9    1
     2     1    26    1
     3     2    16    2
     4     3    18    2
     5     4    23    2
     6    10     5    1
     7     5    18   am
     8     5    45    1
     9     6    13    1
    10     6    16   am
    11     6    47    1
    12    12     7    1
    13     7    28    1
    14     7    29    1
    15     8    23   am
    16     8    33    1
    17     8    74    1
    18     9    10    1
    19     9    11    1
    20     9    38    1
    21    10    16    1
    22    10    37    1
    23    11    19    1
    24    11    20    1
    25    11    39    1
    26    12    15    1
    27    12    18    1
    28    12    40    1
    29    13    14    1
    30    13    23    1
    31    13    41    1
    32    14    21    1
    33    14    22    1
    34    14    42    1
    35    15    17    1
    36    15    43    1
    37    15    44    1
    38    17    24    1
    39    17    25    1
    40    17    46    1
    41    19    48    1
    42    19    49    1
    43    19    50    1
    44    20    51    1
    45    20    52    1
    46    20    53    1
    47    21    27    1
    48    21    54    1
    49    21    55    1
    50    22    56    1
    51    22    57    1
    52    22    58    1
    53    24    60    1
    54    24    61    1
    55    24    62    1
    56    25    59    1
    57    25    63    1
    58    25    64    1
    59    26    30   ar
    60    26    31   ar
    61    27    65    1
    62    27    66    1
    63    27    67    1
    64    28    68    1
    65    28    69    1
    66    28    70    1
    67    29    71    1
    68    29    72    1
    69    29    73    1
    70    30    34   ar
    71    30    75    1
    72    31    35   ar
    73    31    76    1
    74    32    34   ar
    75    32    35   ar
    76    32    36    1
    77    33    36    2
    78    33    77    1
    79    34    78    1
    80    35    79    1
    81    36    80    1
