@<TRIPOS>MOLECULE
IMPHY015538
 42 43 0 0 0
SMALL
GASTEIGER

@<TRIPOS>ATOM
      1 CL          2.0000   -5.5000    0.0000 Cl      1  UNL1       -0.0835
      2 CL          5.4641   -5.5000    0.0000 Cl      1  UNL1       -0.0835
      3 O           5.4641    2.5000    0.0000 O.2     1  UNL1       -0.2525
      4 N           4.5981   -2.0000    0.0000 N.3     1  UNL1       -0.3120
      5 N           6.3301    1.0000    0.0000 N.am    1  UNL1       -0.2991
      6 N           7.1962    2.5000    0.0000 N.am    1  UNL1       -0.2695
      7 C           5.4641   -0.5000    0.0000 C.3     1  UNL1       -0.0247
      8 C           4.5981   -1.0000    0.0000 C.3     1  UNL1       -0.0024
      9 C           5.4641    0.5000    0.0000 C.3     1  UNL1        0.0142
     10 C           3.7320   -2.5000    0.0000 C.3     1  UNL1        0.0213
     11 C           3.7320   -3.5000    0.0000 C.ar    1  UNL1       -0.0308
     12 C           4.5981   -4.0000    0.0000 C.ar    1  UNL1       -0.0389
     13 C           2.8660   -4.0000    0.0000 C.ar    1  UNL1       -0.0389
     14 C           6.3301    2.0000    0.0000 C.2     1  UNL1        0.3039
     15 C           2.8660   -5.0000    0.0000 C.ar    1  UNL1        0.0427
     16 C           4.5981   -5.0000    0.0000 C.ar    1  UNL1        0.0427
     17 C           3.7320   -5.5000    0.0000 C.ar    1  UNL1       -0.0250
     18 C           7.1962    3.5000    0.0000 C.ar    1  UNL1        0.0348
     19 C           8.0622    4.0000    0.0000 C.ar    1  UNL1       -0.0404
     20 C           6.3301    4.0000    0.0000 C.ar    1  UNL1       -0.0404
     21 C           8.0622    5.0000    0.0000 C.ar    1  UNL1       -0.0600
     22 C           6.3301    5.0000    0.0000 C.ar    1  UNL1       -0.0600
     23 C           7.1962    5.5000    0.0000 C.ar    1  UNL1       -0.0616
     24 H           5.6762   -1.0826    0.0000 H       1  UNL1        0.0293
     25 H           6.0747   -0.3923    0.0000 H       1  UNL1        0.0293
     26 H           4.3860   -0.4174    0.0000 H       1  UNL1        0.0425
     27 H           3.9875   -1.1077    0.0000 H       1  UNL1        0.0425
     28 H           5.2520    1.0826    0.0000 H       1  UNL1        0.0463
     29 H           4.8535    0.3923    0.0000 H       1  UNL1        0.0463
     30 H           5.1350   -2.3100    0.0000 H       1  UNL1        0.1222
     31 H           3.5200   -1.9174    0.0000 H       1  UNL1        0.0473
     32 H           3.1215   -2.6077    0.0000 H       1  UNL1        0.0473
     33 H           6.8671    0.6900    0.0000 H       1  UNL1        0.1502
     34 H           5.1350   -3.6900    0.0000 H       1  UNL1        0.0635
     35 H           2.3291   -3.6900    0.0000 H       1  UNL1        0.0635
     36 H           7.7331    2.1900    0.0000 H       1  UNL1        0.1564
     37 H           3.7320   -6.1200    0.0000 H       1  UNL1        0.0647
     38 H           8.5991    3.6900    0.0000 H       1  UNL1        0.0636
     39 H           5.7932    3.6900    0.0000 H       1  UNL1        0.0636
     40 H           8.5991    5.3100    0.0000 H       1  UNL1        0.0618
     41 H           5.7932    5.3100    0.0000 H       1  UNL1        0.0618
     42 H           7.1962    6.1200    0.0000 H       1  UNL1        0.0618
@<TRIPOS>BOND
     1     1    15    1
     2     2    16    1
     3     3    14    2
     4     4     8    1
     5     4    10    1
     6     4    30    1
     7     5     9    1
     8     5    14   am
     9     5    33    1
    10     6    14   am
    11     6    18    1
    12     6    36    1
    13     7     8    1
    14     7     9    1
    15     7    24    1
    16     7    25    1
    17     8    26    1
    18     8    27    1
    19     9    28    1
    20     9    29    1
    21    10    11    1
    22    10    31    1
    23    10    32    1
    24    11    12   ar
    25    11    13   ar
    26    12    16   ar
    27    12    34    1
    28    13    15   ar
    29    13    35    1
    30    15    17   ar
    31    16    17   ar
    32    17    37    1
    33    18    19   ar
    34    18    20   ar
    35    19    21   ar
    36    19    38    1
    37    20    22   ar
    38    20    39    1
    39    21    23   ar
    40    21    40    1
    41    22    23   ar
    42    22    41    1
    43    23    42    1
