@<TRIPOS>MOLECULE
IMPHY009098
 76 80 0 0 0
SMALL
GASTEIGER

@<TRIPOS>ATOM
      1 O           3.8674   -3.1442    0.0000 O.3     1  UNL1       -0.3850
      2 O           4.7810   -3.6650    0.0000 O.3     1  UNL1       -0.3889
      3 O           2.9755    0.4613    0.0000 O.2     1  UNL1       -0.2967
      4 O           9.0712    2.8162    0.0000 O.3     1  UNL1       -0.4574
      5 O           7.4248    3.3543    0.0000 O.3     1  UNL1       -0.3946
      6 O          10.3604    3.9730    0.0000 O.2     1  UNL1       -0.2453
      7 C           6.5251    0.4042    0.0000 C.3     1  UNL1       -0.0257
      8 C           6.5251   -0.5958    0.0000 C.3     1  UNL1       -0.0322
      9 C           5.6591   -1.0958    0.0000 C.3     1  UNL1       -0.0315
     10 C           4.7931   -0.5958    0.0000 C.3     1  UNL1       -0.0230
     11 C           3.8831   -1.1026    0.0000 C.3     1  UNL1        0.0603
     12 C           7.4714    0.7090    0.0000 C.3     1  UNL1       -0.0271
     13 C           5.6591    0.9042    0.0000 C.3     1  UNL1       -0.0468
     14 C           4.7931    0.4042    0.0000 C.3     1  UNL1       -0.0485
     15 C           7.4714   -0.9005    0.0000 C.3     1  UNL1       -0.0492
     16 C           3.8751   -2.1442    0.0000 C.3     1  UNL1        0.1040
     17 C           5.6752   -2.1373    0.0000 C.3     1  UNL1       -0.0207
     18 C           8.0550   -0.0958    0.0000 C.3     1  UNL1       -0.0490
     19 C           4.7771   -2.6650    0.0000 C.3     1  UNL1        0.0851
     20 C           7.7820    1.6595    0.0000 C.3     1  UNL1        0.0229
     21 C           6.5251    1.4042    0.0000 C.3     1  UNL1       -0.0590
     22 C           2.9396   -2.6940    0.0000 C.3     1  UNL1       -0.0202
     23 C           2.9562   -0.5385    0.0000 C.2     1  UNL1        0.1423
     24 C           3.8908   -0.1026    0.0000 C.3     1  UNL1       -0.0498
     25 C           2.0000   -2.1514    0.0000 C.3     1  UNL1       -0.0436
     26 C           2.0084   -1.0665    0.0000 C.3     1  UNL1        0.0066
     27 C           8.7605    1.8657    0.0000 C.3     1  UNL1        0.1122
     28 C           7.1142    2.4038    0.0000 C.3     1  UNL1        0.0507
     29 C           9.4284    1.1214    0.0000 C.3     1  UNL1        0.0064
     30 C          10.4069    1.3276    0.0000 C.2     1  UNL1       -0.0595
     31 C          10.0497    3.0224    0.0000 C.2     1  UNL1        0.3351
     32 C          10.7175    2.2781    0.0000 C.2     1  UNL1        0.0326
     33 C          11.0747    0.5833    0.0000 C.3     1  UNL1       -0.0429
     34 C          11.6960    2.4844    0.0000 C.3     1  UNL1       -0.0330
     35 H           6.6151   -1.4410    0.0000 H       1  UNL1        0.0309
     36 H           6.3985   -1.5151    0.0000 H       1  UNL1        0.0307
     37 H           5.5292   -0.1708    0.0000 H       1  UNL1        0.0314
     38 H           8.3111    0.8408    0.0000 H       1  UNL1        0.0311
     39 H           6.0576    1.3792    0.0000 H       1  UNL1        0.0271
     40 H           5.2606    1.3792    0.0000 H       1  UNL1        0.0271
     41 H           4.5810    0.9868    0.0000 H       1  UNL1        0.0268
     42 H           4.1825    0.2966    0.0000 H       1  UNL1        0.0268
     43 H           7.2203   -1.4674    0.0000 H       1  UNL1        0.0268
     44 H           8.0087   -1.2097    0.0000 H       1  UNL1        0.0268
     45 H           5.8932   -2.7177    0.0000 H       1  UNL1        0.0294
     46 H           6.2843   -2.0218    0.0000 H       1  UNL1        0.0294
     47 H           8.5158   -0.5105    0.0000 H       1  UNL1        0.0268
     48 H           8.5158    0.3190    0.0000 H       1  UNL1        0.0268
     49 H           5.3158   -2.9719    0.0000 H       1  UNL1        0.0622
     50 H           7.9746    2.2488    0.0000 H       1  UNL1        0.0362
     51 H           7.1451    1.4042    0.0000 H       1  UNL1        0.0235
     52 H           6.5251    2.0242    0.0000 H       1  UNL1        0.0235
     53 H           5.9051    1.4042    0.0000 H       1  UNL1        0.0235
     54 H           2.5423   -3.1699    0.0000 H       1  UNL1        0.0294
     55 H           3.3406   -3.1668    0.0000 H       1  UNL1        0.0294
     56 H           4.5108   -0.1074    0.0000 H       1  UNL1        0.0240
     57 H           3.8956    0.5173    0.0000 H       1  UNL1        0.0240
     58 H           3.2708   -0.0979    0.0000 H       1  UNL1        0.0240
     59 H           1.3900   -2.0406    0.0000 H       1  UNL1        0.0270
     60 H           1.7864   -2.7335    0.0000 H       1  UNL1        0.0270
     61 H           1.8038   -0.4812    0.0000 H       1  UNL1        0.0342
     62 H           1.3967   -1.1679    0.0000 H       1  UNL1        0.0342
     63 H           9.5923    2.0410    0.0000 H       1  UNL1        0.0741
     64 H           3.3280   -3.4500    0.0000 H       1  UNL1        0.2103
     65 H           6.5672    2.6958    0.0000 H       1  UNL1        0.0561
     66 H           6.7316    1.9159    0.0000 H       1  UNL1        0.0561
     67 H           5.3191   -3.9730    0.0000 H       1  UNL1        0.2099
     68 H           8.9020    0.7938    0.0000 H       1  UNL1        0.0346
     69 H           9.6596    0.5461    0.0000 H       1  UNL1        0.0346
     70 H           7.0108    3.8158    0.0000 H       1  UNL1        0.2094
     71 H          10.6133    0.1692    0.0000 H       1  UNL1        0.0275
     72 H          11.4888    0.1218    0.0000 H       1  UNL1        0.0275
     73 H          11.5362    0.9974    0.0000 H       1  UNL1        0.0275
     74 H          11.8239    1.8777    0.0000 H       1  UNL1        0.0280
     75 H          12.3027    2.6122    0.0000 H       1  UNL1        0.0280
     76 H          11.5682    3.0910    0.0000 H       1  UNL1        0.0280
@<TRIPOS>BOND
     1    16     1    1
     2     1    64    1
     3    19     2    1
     4     2    67    1
     5     3    23    2
     6     4    27    1
     7     4    31    1
     8     5    28    1
     9     5    70    1
    10     6    31    2
    11     7     8    1
    12     7    12    1
    13     7    13    1
    14     7    21    1
    15     8     9    1
    16     8    15    1
    17     8    35    1
    18     9    10    1
    19     9    17    1
    20     9    36    1
    21    10    11    1
    22    10    14    1
    23    10    37    1
    24    11    16    1
    25    11    23    1
    26    11    24    1
    27    12    18    1
    28    12    20    1
    29    12    38    1
    30    13    14    1
    31    13    39    1
    32    13    40    1
    33    14    41    1
    34    14    42    1
    35    15    18    1
    36    15    43    1
    37    15    44    1
    38    16    19    1
    39    16    22    1
    40    17    19    1
    41    17    45    1
    42    17    46    1
    43    18    47    1
    44    18    48    1
    45    19    49    1
    46    20    27    1
    47    20    28    1
    48    20    50    1
    49    21    51    1
    50    21    52    1
    51    21    53    1
    52    22    25    1
    53    22    54    1
    54    22    55    1
    55    23    26    1
    56    24    56    1
    57    24    57    1
    58    24    58    1
    59    25    26    1
    60    25    59    1
    61    25    60    1
    62    26    61    1
    63    26    62    1
    64    27    29    1
    65    27    63    1
    66    28    65    1
    67    28    66    1
    68    29    30    1
    69    29    68    1
    70    29    69    1
    71    30    32    2
    72    30    33    1
    73    31    32    1
    74    32    34    1
    75    33    71    1
    76    33    72    1
    77    33    73    1
    78    34    74    1
    79    34    75    1
    80    34    76    1
