@<TRIPOS>MOLECULE
IMPHY007335
 26 29 0 0 0
SMALL
GASTEIGER

@<TRIPOS>ATOM
      1 C           3.8839   -0.9279    0.0000 C.ar    1  UNL1       -0.0024
      2 C           3.0749   -0.3401    0.0000 C.ar    1  UNL1       -0.0090
      3 C           4.6929   -0.3401    0.0000 C.ar    1  UNL1       -0.0090
      4 C           3.3839    0.6110    0.0000 C.ar    1  UNL1       -0.0096
      5 C           4.3839    0.6110    0.0000 C.ar    1  UNL1       -0.0096
      6 C           3.7910   -1.9653    0.0000 C.ar    1  UNL1       -0.0167
      7 C           2.1169   -0.7490    0.0000 C.ar    1  UNL1       -0.0534
      8 C           5.5492   -0.8710    0.0000 C.ar    1  UNL1       -0.0534
      9 C           2.8492    1.5049    0.0000 C.ar    1  UNL1       -0.0534
     10 C           4.9185    1.5049    0.0000 C.ar    1  UNL1       -0.0534
     11 C           2.8427   -2.3963    0.0000 C.ar    1  UNL1       -0.0540
     12 C           4.6946   -2.4110    0.0000 C.ar    1  UNL1       -0.0540
     13 C           2.0000   -1.7841    0.0000 C.ar    1  UNL1       -0.0606
     14 C           5.5500   -1.8786    0.0000 C.ar    1  UNL1       -0.0606
     15 C           3.3631    2.4110    0.0000 C.ar    1  UNL1       -0.0611
     16 C           4.4047    2.4110    0.0000 C.ar    1  UNL1       -0.0611
     17 H           1.6195   -0.3788    0.0000 H       1  UNL1        0.0624
     18 H           6.0908   -0.5693    0.0000 H       1  UNL1        0.0624
     19 H           2.2293    1.4978    0.0000 H       1  UNL1        0.0624
     20 H           5.5385    1.4978    0.0000 H       1  UNL1        0.0624
     21 H           2.7803   -3.0132    0.0000 H       1  UNL1        0.0624
     22 H           4.7252   -3.0302    0.0000 H       1  UNL1        0.0624
     23 H           1.4326   -2.0341    0.0000 H       1  UNL1        0.0618
     24 H           6.0921   -2.1794    0.0000 H       1  UNL1        0.0618
     25 H           3.0510    2.9467    0.0000 H       1  UNL1        0.0618
     26 H           4.7168    2.9467    0.0000 H       1  UNL1        0.0618
@<TRIPOS>BOND
     1     1     2   ar
     2     1     3   ar
     3     1     6   ar
     4     2     4    1
     5     2     7   ar
     6     3     5    1
     7     3     8   ar
     8     4     5   ar
     9     4     9   ar
    10     5    10   ar
    11     6    11   ar
    12     6    12   ar
    13     7    13   ar
    14     7    17    1
    15     8    14   ar
    16     8    18    1
    17     9    15   ar
    18     9    19    1
    19    10    16   ar
    20    10    20    1
    21    11    13   ar
    22    11    21    1
    23    12    14   ar
    24    12    22    1
    25    13    23    1
    26    14    24    1
    27    15    16   ar
    28    15    25    1
    29    16    26    1
