@<TRIPOS>MOLECULE
IMPHY016121
 14 13 0 0 0
SMALL
GASTEIGER

@<TRIPOS>ATOM
      1 O           5.4641    0.2500    0.0000 O.3     1  UNL1       -0.3875
      2 O           3.7320   -0.7500    0.0000 O.2     1  UNL1       -0.2950
      3 C           2.8660    0.7500    0.0000 C.3     1  UNL1        0.0053
      4 C           3.7320    0.2500    0.0000 C.2     1  UNL1        0.1582
      5 C           2.0000    0.2500    0.0000 C.3     1  UNL1       -0.0585
      6 C           4.5981    0.7500    0.0000 C.3     1  UNL1        0.1022
      7 H           3.2646    1.2250    0.0000 H       1  UNL1        0.0340
      8 H           2.4675    1.2250    0.0000 H       1  UNL1        0.0340
      9 H           1.6900    0.7869    0.0000 H       1  UNL1        0.0234
     10 H           1.4631   -0.0600    0.0000 H       1  UNL1        0.0234
     11 H           2.3100   -0.2869    0.0000 H       1  UNL1        0.0234
     12 H           4.9966    1.2250    0.0000 H       1  UNL1        0.0636
     13 H           4.1996    1.2250    0.0000 H       1  UNL1        0.0636
     14 H           6.0010    0.5600    0.0000 H       1  UNL1        0.2100
@<TRIPOS>BOND
     1     1     6    1
     2     1    14    1
     3     2     4    2
     4     3     4    1
     5     3     5    1
     6     3     7    1
     7     3     8    1
     8     4     6    1
     9     5     9    1
    10     5    10    1
    11     5    11    1
    12     6    12    1
    13     6    13    1
