@<TRIPOS>MOLECULE
IMPHY016218
 32 33 0 0 0
SMALL
GASTEIGER

@<TRIPOS>ATOM
      1 O           4.5981    0.2500    0.0000 O.2     1  UNL1       -0.2924
      2 O           2.8660   -2.7500    0.0000 O.3     1  UNL1       -0.4951
      3 C           4.5981    3.2500    0.0000 C.3     1  UNL1       -0.0486
      4 C           5.4641    2.7500    0.0000 C.3     1  UNL1       -0.0458
      5 C           3.7320    2.7500    0.0000 C.3     1  UNL1       -0.0244
      6 C           5.4641    1.7500    0.0000 C.3     1  UNL1        0.0101
      7 C           3.7320    1.7500    0.0000 C.2     1  UNL1       -0.0044
      8 C           4.5981    1.2500    0.0000 C.2     1  UNL1        0.1592
      9 C           2.8660    1.2500    0.0000 C.2     1  UNL1       -0.0481
     10 C           2.8660    0.2500    0.0000 C.ar    1  UNL1       -0.0244
     11 C           3.7320   -0.2500    0.0000 C.ar    1  UNL1       -0.0511
     12 C           2.0000   -0.2500    0.0000 C.ar    1  UNL1       -0.0511
     13 C           3.7320   -1.2500    0.0000 C.ar    1  UNL1       -0.0194
     14 C           2.0000   -1.2500    0.0000 C.ar    1  UNL1       -0.0194
     15 C           2.8660   -1.7500    0.0000 C.ar    1  UNL1        0.1201
     16 C           2.0000   -3.2500    0.0000 C.3     1  UNL1        0.0788
     17 H           4.9966    3.7250    0.0000 H       1  UNL1        0.0269
     18 H           4.1996    3.7250    0.0000 H       1  UNL1        0.0269
     19 H           6.0747    2.6423    0.0000 H       1  UNL1        0.0269
     20 H           5.6762    3.3326    0.0000 H       1  UNL1        0.0269
     21 H           3.5200    3.3326    0.0000 H       1  UNL1        0.0314
     22 H           3.1215    2.6423    0.0000 H       1  UNL1        0.0314
     23 H           5.6762    1.1674    0.0000 H       1  UNL1        0.0345
     24 H           6.0747    1.8577    0.0000 H       1  UNL1        0.0345
     25 H           2.3291    1.5600    0.0000 H       1  UNL1        0.0627
     26 H           4.2690    0.0600    0.0000 H       1  UNL1        0.0625
     27 H           1.4631    0.0600    0.0000 H       1  UNL1        0.0625
     28 H           4.2690   -1.5600    0.0000 H       1  UNL1        0.0654
     29 H           1.4631   -1.5600    0.0000 H       1  UNL1        0.0654
     30 H           1.6900   -2.7131    0.0000 H       1  UNL1        0.0660
     31 H           1.4631   -3.5600    0.0000 H       1  UNL1        0.0660
     32 H           2.3100   -3.7869    0.0000 H       1  UNL1        0.0660
@<TRIPOS>BOND
     1     1     8    2
     2     2    15    1
     3     2    16    1
     4     3     4    1
     5     3     5    1
     6     3    17    1
     7     3    18    1
     8     4     6    1
     9     4    19    1
    10     4    20    1
    11     5     7    1
    12     5    21    1
    13     5    22    1
    14     6     8    1
    15     6    23    1
    16     6    24    1
    17     7     8    1
    18     7     9    2
    19     9    10    1
    20     9    25    1
    21    10    11   ar
    22    10    12   ar
    23    11    13   ar
    24    11    26    1
    25    12    14   ar
    26    12    27    1
    27    13    15   ar
    28    13    28    1
    29    14    15   ar
    30    14    29    1
    31    16    30    1
    32    16    31    1
    33    16    32    1
