@<TRIPOS>MOLECULE
IMPHY005501
 17 17 0 0 0
SMALL
GASTEIGER

@<TRIPOS>ATOM
      1 O           4.2920    1.9814    0.0000 O.2     1  UNL1       -0.2715
      2 O           7.1399   -0.0877    0.0000 O.2     1  UNL1       -0.2524
      3 O           4.1550   -1.7350    0.0000 O.2     1  UNL1       -0.2530
      4 N           5.3798   -0.3665    0.0000 N.am    1  UNL1       -0.2730
      5 N           3.6197   -0.0877    0.0000 N.am    1  UNL1       -0.2735
      6 N           5.8798    1.1723    0.0000 N.am    1  UNL1       -0.2372
      7 N           2.4608   -1.3749    0.0000 N.am    1  UNL1       -0.3133
      8 C           4.5708    0.2213    0.0000 C.3     1  UNL1        0.1703
      9 C           4.8798    1.1723    0.0000 C.2     1  UNL1        0.2591
     10 C           6.1888    0.2213    0.0000 C.2     1  UNL1        0.3077
     11 C           3.4118   -1.0659    0.0000 C.2     1  UNL1        0.2988
     12 H           4.1324    0.6597    0.0000 H       1  UNL1        0.0809
     13 H           5.3798   -0.9865    0.0000 H       1  UNL1        0.1525
     14 H           3.1590    0.3271    0.0000 H       1  UNL1        0.1525
     15 H           6.2442    1.6739    0.0000 H       1  UNL1        0.1592
     16 H           2.3318   -1.9814    0.0000 H       1  UNL1        0.1465
     17 H           2.0000   -0.9600    0.0000 H       1  UNL1        0.1465
@<TRIPOS>BOND
     1     1     9    2
     2     2    10    2
     3     3    11    2
     4     4     8    1
     5     4    10   am
     6     4    13    1
     7     5     8    1
     8     5    11   am
     9     5    14    1
    10     6     9   am
    11     6    10   am
    12     6    15    1
    13     7    11   am
    14     7    16    1
    15     7    17    1
    16     8     9    1
    17     8    12    1
