@<TRIPOS>MOLECULE
IMPHY005952
 51 50 0 0 0
SMALL
GASTEIGER

@<TRIPOS>ATOM
      1 O           2.8660   -1.0600    0.0000 O.2     1  UNL1       -0.2977
      2 C           6.3301   -0.0600    0.0000 C.3     1  UNL1       -0.0436
      3 C           5.4641    0.4400    0.0000 C.3     1  UNL1       -0.0501
      4 C           7.1962    0.4400    0.0000 C.3     1  UNL1       -0.0470
      5 C           4.5981   -0.0600    0.0000 C.3     1  UNL1       -0.0461
      6 C           8.0622   -0.0600    0.0000 C.3     1  UNL1       -0.0343
      7 C           6.3301   -1.0600    0.0000 C.3     1  UNL1       -0.0624
      8 C           3.7320    0.4400    0.0000 C.3     1  UNL1        0.0056
      9 C           8.9282    0.4400    0.0000 C.2     1  UNL1       -0.0850
     10 C           9.7942   -0.0600    0.0000 C.2     1  UNL1       -0.0762
     11 C          10.6603    0.4400    0.0000 C.3     1  UNL1       -0.0286
     12 C           2.8660   -0.0600    0.0000 C.2     1  UNL1        0.1303
     13 C          11.5263   -0.0600    0.0000 C.3     1  UNL1       -0.0308
     14 C           9.7942   -1.0600    0.0000 C.3     1  UNL1       -0.0438
     15 C           2.0000    0.4400    0.0000 C.3     1  UNL1       -0.0061
     16 C          12.3923    0.4400    0.0000 C.2     1  UNL1       -0.0850
     17 C          13.2583   -0.0600    0.0000 C.2     1  UNL1       -0.0796
     18 C          14.1244    0.4400    0.0000 C.3     1  UNL1       -0.0440
     19 C          13.2583   -1.0600    0.0000 C.3     1  UNL1       -0.0440
     20 H           6.8671   -0.3700    0.0000 H       1  UNL1        0.0298
     21 H           5.8626    0.9149    0.0000 H       1  UNL1        0.0268
     22 H           5.0656    0.9149    0.0000 H       1  UNL1        0.0268
     23 H           7.5947    0.9149    0.0000 H       1  UNL1        0.0271
     24 H           6.7976    0.9149    0.0000 H       1  UNL1        0.0271
     25 H           4.1996   -0.5349    0.0000 H       1  UNL1        0.0269
     26 H           4.9966   -0.5349    0.0000 H       1  UNL1        0.0269
     27 H           7.6636   -0.5349    0.0000 H       1  UNL1        0.0307
     28 H           8.4607   -0.5349    0.0000 H       1  UNL1        0.0307
     29 H           5.7101   -1.0600    0.0000 H       1  UNL1        0.0232
     30 H           6.3301   -1.6800    0.0000 H       1  UNL1        0.0232
     31 H           6.9501   -1.0600    0.0000 H       1  UNL1        0.0232
     32 H           4.1306    0.9149    0.0000 H       1  UNL1        0.0341
     33 H           3.3335    0.9149    0.0000 H       1  UNL1        0.0341
     34 H           8.9282    1.0600    0.0000 H       1  UNL1        0.0572
     35 H          11.0588    0.9149    0.0000 H       1  UNL1        0.0313
     36 H          10.2617    0.9149    0.0000 H       1  UNL1        0.0313
     37 H          11.1278   -0.5349    0.0000 H       1  UNL1        0.0310
     38 H          11.9248   -0.5349    0.0000 H       1  UNL1        0.0310
     39 H           9.1742   -1.0600    0.0000 H       1  UNL1        0.0274
     40 H           9.7942   -1.6800    0.0000 H       1  UNL1        0.0274
     41 H          10.4142   -1.0600    0.0000 H       1  UNL1        0.0274
     42 H           2.3100    0.9769    0.0000 H       1  UNL1        0.0306
     43 H           1.4631    0.7500    0.0000 H       1  UNL1        0.0306
     44 H           1.6900   -0.0969    0.0000 H       1  UNL1        0.0306
     45 H          12.3923    1.0600    0.0000 H       1  UNL1        0.0572
     46 H          12.6383   -1.0600    0.0000 H       1  UNL1        0.0274
     47 H          13.2583   -1.6800    0.0000 H       1  UNL1        0.0274
     48 H          13.8783   -1.0600    0.0000 H       1  UNL1        0.0274
     49 H          14.4344   -0.0969    0.0000 H       1  UNL1        0.0274
     50 H          14.6613    0.7500    0.0000 H       1  UNL1        0.0274
     51 H          13.8144    0.9769    0.0000 H       1  UNL1        0.0274
@<TRIPOS>BOND
     1     1    12    2
     2     2     3    1
     3     2     4    1
     4     2     7    1
     5     2    20    1
     6     3     5    1
     7     3    21    1
     8     3    22    1
     9     4     6    1
    10     4    23    1
    11     4    24    1
    12     5     8    1
    13     5    25    1
    14     5    26    1
    15     6     9    1
    16     6    27    1
    17     6    28    1
    18     7    29    1
    19     7    30    1
    20     7    31    1
    21     8    12    1
    22     8    32    1
    23     8    33    1
    24     9    10    2
    25     9    34    1
    26    10    11    1
    27    10    14    1
    28    11    13    1
    29    11    35    1
    30    11    36    1
    31    12    15    1
    32    13    16    1
    33    13    37    1
    34    13    38    1
    35    14    39    1
    36    14    40    1
    37    14    41    1
    38    15    42    1
    39    15    43    1
    40    15    44    1
    41    16    17    2
    42    16    45    1
    43    17    18    1
    44    17    19    1
    45    18    49    1
    46    18    50    1
    47    18    51    1
    48    19    46    1
    49    19    47    1
    50    19    48    1
