@<TRIPOS>MOLECULE
IMPHY016230
 23 23 0 0 0
SMALL
GASTEIGER

@<TRIPOS>ATOM
      1 O           2.0000    0.2500    0.0000 O.2     1  UNL1       -0.2971
      2 C           3.7320    0.2500    0.0000 C.3     1  UNL1        0.0173
      3 C           4.5981   -0.2500    0.0000 C.3     1  UNL1       -0.0435
      4 C           4.5981   -1.2500    0.0000 C.3     1  UNL1       -0.0520
      5 C           3.7320   -1.7500    0.0000 C.3     1  UNL1       -0.0463
      6 C           2.8660   -1.2500    0.0000 C.3     1  UNL1        0.0061
      7 C           2.8660   -0.2500    0.0000 C.2     1  UNL1        0.1364
      8 C           3.7320    1.2500    0.0000 C.3     1  UNL1       -0.0464
      9 C           4.5981    1.7500    0.0000 C.3     1  UNL1       -0.0646
     10 H           4.2690    0.5600    0.0000 H       1  UNL1        0.0377
     11 H           5.2087   -0.3577    0.0000 H       1  UNL1        0.0272
     12 H           4.8101    0.3326    0.0000 H       1  UNL1        0.0272
     13 H           4.8101   -1.8326    0.0000 H       1  UNL1        0.0266
     14 H           5.2087   -1.1423    0.0000 H       1  UNL1        0.0266
     15 H           3.3335   -2.2250    0.0000 H       1  UNL1        0.0269
     16 H           4.1306   -2.2250    0.0000 H       1  UNL1        0.0269
     17 H           2.2554   -1.1423    0.0000 H       1  UNL1        0.0342
     18 H           2.6540   -1.8326    0.0000 H       1  UNL1        0.0342
     19 H           3.5200    1.8326    0.0000 H       1  UNL1        0.0269
     20 H           3.1215    1.1423    0.0000 H       1  UNL1        0.0269
     21 H           4.9081    1.2131    0.0000 H       1  UNL1        0.0230
     22 H           5.1350    2.0600    0.0000 H       1  UNL1        0.0230
     23 H           4.2881    2.2869    0.0000 H       1  UNL1        0.0230
@<TRIPOS>BOND
     1     1     7    2
     2     2     3    1
     3     2     7    1
     4     2     8    1
     5     2    10    1
     6     3     4    1
     7     3    11    1
     8     3    12    1
     9     4     5    1
    10     4    13    1
    11     4    14    1
    12     5     6    1
    13     5    15    1
    14     5    16    1
    15     6     7    1
    16     6    17    1
    17     6    18    1
    18     8     9    1
    19     8    19    1
    20     8    20    1
    21     9    21    1
    22     9    22    1
    23     9    23    1
