@<TRIPOS>MOLECULE
IMPHY013847
 66 68 0 0 0
SMALL
GASTEIGER

@<TRIPOS>ATOM
      1 O           5.8671   -0.8188    0.0000 O.3     1  UNL1       -0.3362
      2 O           8.1271    0.4413    0.0000 O.3     1  UNL1       -0.3374
      3 O           6.8671   -1.8188    0.0000 O.3     1  UNL1       -0.3125
      4 O           7.5919    2.0885    0.0000 O.3     1  UNL1       -0.3405
      5 O           5.1350   -1.8188    0.0000 O.3     1  UNL1       -0.3404
      6 O           6.3671    1.7200    0.0000 O.3     1  UNL1       -0.3864
      7 O           8.5613   -0.4587    0.0000 O.3     1  UNL1       -0.3896
      8 O          10.0292    1.0593    0.0000 O.3     1  UNL1       -0.3841
      9 O           6.8671   -3.8188    0.0000 O.3     1  UNL1       -0.3841
     10 O          10.4451    3.0156    0.0000 O.3     1  UNL1       -0.3864
     11 O           5.1350   -4.8188    0.0000 O.3     1  UNL1       -0.3864
     12 O           4.3991    1.4194    0.0000 O.3     1  UNL1       -0.3924
     13 O           8.9588    4.3538    0.0000 O.3     1  UNL1       -0.3865
     14 O           3.4030   -3.8188    0.0000 O.3     1  UNL1       -0.3865
     15 O           7.2646    4.7140    0.0000 O.3     1  UNL1       -0.3924
     16 O           2.5369   -2.3188    0.0000 O.3     1  UNL1       -0.3924
     17 C           7.1761    0.1322    0.0000 C.3     1  UNL1        0.1460
     18 C           6.8671   -0.8188    0.0000 C.3     1  UNL1        0.2255
     19 C           6.3671    0.7200    0.0000 C.3     1  UNL1        0.1148
     20 C           5.5580    0.1322    0.0000 C.3     1  UNL1        0.1134
     21 C           8.3351    1.4194    0.0000 C.3     1  UNL1        0.1886
     22 C           6.0010   -2.3188    0.0000 C.3     1  UNL1        0.1912
     23 C           7.8181   -1.1278    0.0000 C.3     1  UNL1        0.1009
     24 C           9.2861    1.7284    0.0000 C.3     1  UNL1        0.1341
     25 C           6.0010   -3.3188    0.0000 C.3     1  UNL1        0.1342
     26 C           9.4940    2.7066    0.0000 C.3     1  UNL1        0.1141
     27 C           5.1350   -3.8188    0.0000 C.3     1  UNL1        0.1141
     28 C           4.6070    0.4413    0.0000 C.3     1  UNL1        0.0730
     29 C           8.7509    3.3757    0.0000 C.3     1  UNL1        0.1119
     30 C           4.2690   -3.3188    0.0000 C.3     1  UNL1        0.1119
     31 C           7.7998    3.0667    0.0000 C.3     1  UNL1        0.1130
     32 C           4.2690   -2.3188    0.0000 C.3     1  UNL1        0.1130
     33 C           7.0567    3.7358    0.0000 C.3     1  UNL1        0.0730
     34 C           3.4030   -1.8188    0.0000 C.3     1  UNL1        0.0730
     35 H           7.2731    0.7446    0.0000 H       1  UNL1        0.0679
     36 H           6.9195    1.0015    0.0000 H       1  UNL1        0.0648
     37 H           5.1196   -0.3062    0.0000 H       1  UNL1        0.0647
     38 H           7.7454    1.2278    0.0000 H       1  UNL1        0.0938
     39 H           6.0010   -1.6988    0.0000 H       1  UNL1        0.0939
     40 H           7.5270   -1.6753    0.0000 H       1  UNL1        0.0612
     41 H           8.3067   -1.5096    0.0000 H       1  UNL1        0.0612
     42 H           9.1572    1.1220    0.0000 H       1  UNL1        0.0671
     43 H           6.0010   -3.9388    0.0000 H       1  UNL1        0.0671
     44 H           9.9548    2.2917    0.0000 H       1  UNL1        0.0648
     45 H           4.5981   -4.1288    0.0000 H       1  UNL1        0.0648
     46 H           3.9874    0.4196    0.0000 H       1  UNL1        0.0584
     47 H           4.5207   -0.1727    0.0000 H       1  UNL1        0.0584
     48 H           9.3405    3.5673    0.0000 H       1  UNL1        0.0647
     49 H           4.2690   -3.9388    0.0000 H       1  UNL1        0.0647
     50 H           7.2102    2.8751    0.0000 H       1  UNL1        0.0647
     51 H           4.2690   -1.6988    0.0000 H       1  UNL1        0.0647
     52 H           5.8301    2.0300    0.0000 H       1  UNL1        0.2100
     53 H           6.4818    3.9681    0.0000 H       1  UNL1        0.0584
     54 H           6.7281    3.2100    0.0000 H       1  UNL1        0.0584
     55 H           3.8015   -1.3439    0.0000 H       1  UNL1        0.0584
     56 H           3.0044   -1.3439    0.0000 H       1  UNL1        0.0584
     57 H           9.1509   -0.6503    0.0000 H       1  UNL1        0.2096
     58 H          10.6189    1.2509    0.0000 H       1  UNL1        0.2101
     59 H           6.8671   -4.4388    0.0000 H       1  UNL1        0.2101
     60 H          10.5740    3.6220    0.0000 H       1  UNL1        0.2100
     61 H           4.5981   -5.1288    0.0000 H       1  UNL1        0.2100
     62 H           3.8094    1.6110    0.0000 H       1  UNL1        0.2095
     63 H           9.5484    4.5454    0.0000 H       1  UNL1        0.2100
     64 H           3.4030   -4.4388    0.0000 H       1  UNL1        0.2100
     65 H           6.8038    5.1288    0.0000 H       1  UNL1        0.2095
     66 H           2.0000   -2.0088    0.0000 H       1  UNL1        0.2095
@<TRIPOS>BOND
     1     1    18    1
     2     1    20    1
     3    17     2    1
     4    21     2    1
     5    18     3    1
     6    22     3    1
     7     4    21    1
     8     4    31    1
     9     5    22    1
    10     5    32    1
    11    19     6    1
    12     6    52    1
    13     7    23    1
    14     7    57    1
    15    24     8    1
    16     8    58    1
    17    25     9    1
    18     9    59    1
    19    26    10    1
    20    10    60    1
    21    27    11    1
    22    11    61    1
    23    12    28    1
    24    12    62    1
    25    29    13    1
    26    13    63    1
    27    30    14    1
    28    14    64    1
    29    15    33    1
    30    15    65    1
    31    16    34    1
    32    16    66    1
    33    17    18    1
    34    17    19    1
    35    17    35    1
    36    18    23    1
    37    19    20    1
    38    19    36    1
    39    20    28    1
    40    20    37    1
    41    21    24    1
    42    21    38    1
    43    22    25    1
    44    22    39    1
    45    23    40    1
    46    23    41    1
    47    24    26    1
    48    24    42    1
    49    25    27    1
    50    25    43    1
    51    26    29    1
    52    26    44    1
    53    27    30    1
    54    27    45    1
    55    28    46    1
    56    28    47    1
    57    29    31    1
    58    29    48    1
    59    30    32    1
    60    30    49    1
    61    31    33    1
    62    31    50    1
    63    32    34    1
    64    32    51    1
    65    33    53    1
    66    33    54    1
    67    34    55    1
    68    34    56    1
