@<TRIPOS>MOLECULE
IMPHY006225
 44 47 0 0 0
SMALL
GASTEIGER

@<TRIPOS>ATOM
      1 O          11.3520   -1.4953    0.0000 O.3     1  UNL1       -0.4815
      2 O           9.5920    1.5394    0.0000 O.3     1  UNL1       -0.5053
      3 O           2.5836    0.3441    0.0000 O.3     1  UNL1       -0.4526
      4 O           2.5836   -1.2654    0.0000 O.3     1  UNL1       -0.4526
      5 O           7.8600    1.5394    0.0000 O.2     1  UNL1       -0.2872
      6 C          12.2580   -0.9814    0.0000 C.3     1  UNL1        0.1235
      7 C          12.2580    0.0602    0.0000 C.2     1  UNL1       -0.0408
      8 C          10.4580    0.0394    0.0000 C.ar    1  UNL1        0.0586
      9 C          10.4580   -0.9606    0.0000 C.ar    1  UNL1        0.1324
     10 C          13.2580   -0.9853    0.0000 C.3     1  UNL1       -0.0215
     11 C          12.7547   -1.8494    0.0000 C.3     1  UNL1       -0.0215
     12 C          11.3520    0.5740    0.0000 C.2     1  UNL1       -0.0478
     13 C           9.5920    0.5394    0.0000 C.ar    1  UNL1        0.1382
     14 C           9.5920   -1.4606    0.0000 C.ar    1  UNL1       -0.0184
     15 C           8.7260    0.0394    0.0000 C.ar    1  UNL1        0.0638
     16 C           8.7260   -0.9606    0.0000 C.ar    1  UNL1       -0.0439
     17 C           7.8600    0.5394    0.0000 C.2     1  UNL1        0.1896
     18 C           5.2619    0.0394    0.0000 C.ar    1  UNL1       -0.0212
     19 C           3.5298    0.0394    0.0000 C.ar    1  UNL1        0.1668
     20 C           3.5298   -0.9606    0.0000 C.ar    1  UNL1        0.1663
     21 C           6.9939    0.0394    0.0000 C.2     1  UNL1       -0.0137
     22 C           4.3958    0.5394    0.0000 C.ar    1  UNL1       -0.0090
     23 C           6.1279    0.5394    0.0000 C.2     1  UNL1       -0.0508
     24 C           5.2619   -0.9606    0.0000 C.ar    1  UNL1       -0.0509
     25 C           4.3958   -1.4606    0.0000 C.ar    1  UNL1       -0.0156
     26 C           2.0000   -0.4606    0.0000 C.3     1  UNL1        0.2332
     27 H          12.7938    0.3723    0.0000 H       1  UNL1        0.0611
     28 H          13.2556   -1.6053    0.0000 H       1  UNL1        0.0271
     29 H          13.8780   -0.9877    0.0000 H       1  UNL1        0.0271
     30 H          13.2604   -0.3653    0.0000 H       1  UNL1        0.0271
     31 H          12.2166   -2.1573    0.0000 H       1  UNL1        0.0271
     32 H          13.0626   -2.3875    0.0000 H       1  UNL1        0.0271
     33 H          13.2928   -1.5414    0.0000 H       1  UNL1        0.0271
     34 H          11.3448    1.1940    0.0000 H       1  UNL1        0.0624
     35 H           9.5920   -2.0806    0.0000 H       1  UNL1        0.0654
     36 H           8.1890   -1.2706    0.0000 H       1  UNL1        0.0627
     37 H           6.9939   -0.5806    0.0000 H       1  UNL1        0.0656
     38 H           4.3958    1.1594    0.0000 H       1  UNL1        0.0661
     39 H           6.1279    1.1594    0.0000 H       1  UNL1        0.0625
     40 H          10.1289    1.8494    0.0000 H       1  UNL1        0.2922
     41 H           5.7988   -1.2706    0.0000 H       1  UNL1        0.0625
     42 H           4.3958   -2.0806    0.0000 H       1  UNL1        0.0655
     43 H           1.5391   -0.0459    0.0000 H       1  UNL1        0.1166
     44 H           1.5391   -0.8753    0.0000 H       1  UNL1        0.1166
@<TRIPOS>BOND
     1     1     6    1
     2     1     9    1
     3     2    13    1
     4     2    40    1
     5     3    19    1
     6     3    26    1
     7     4    20    1
     8     4    26    1
     9     5    17    2
    10     6     7    1
    11     6    10    1
    12     6    11    1
    13     7    12    2
    14     7    27    1
    15     8     9   ar
    16     8    12    1
    17     8    13   ar
    18     9    14   ar
    19    10    28    1
    20    10    29    1
    21    10    30    1
    22    11    31    1
    23    11    32    1
    24    11    33    1
    25    12    34    1
    26    13    15   ar
    27    14    16   ar
    28    14    35    1
    29    15    16   ar
    30    15    17    1
    31    16    36    1
    32    17    21    1
    33    18    22   ar
    34    18    23    1
    35    18    24   ar
    36    19    20   ar
    37    19    22   ar
    38    20    25   ar
    39    21    23    2
    40    21    37    1
    41    22    38    1
    42    23    39    1
    43    24    25   ar
    44    24    41    1
    45    25    42    1
    46    26    43    1
    47    26    44    1
