@<TRIPOS>MOLECULE
IMPHY000349
 45 47 0 0 0
SMALL
GASTEIGER

@<TRIPOS>ATOM
      1 O           9.8222   -1.1897    0.0000 O.3     1  UNL1       -0.4814
      2 O           6.3301   -1.1550    0.0000 O.3     1  UNL1       -0.4942
      3 O           8.0622    1.8450    0.0000 O.3     1  UNL1       -0.5052
      4 O           6.3301    1.8450    0.0000 O.2     1  UNL1       -0.2870
      5 C          10.7282   -0.6758    0.0000 C.3     1  UNL1        0.1235
      6 C          10.7282    0.3658    0.0000 C.2     1  UNL1       -0.0408
      7 C           8.9282    0.3450    0.0000 C.ar    1  UNL1        0.0588
      8 C           8.9282   -0.6550    0.0000 C.ar    1  UNL1        0.1359
      9 C          11.7282   -0.6797    0.0000 C.3     1  UNL1       -0.0215
     10 C          11.2249   -1.5438    0.0000 C.3     1  UNL1       -0.0215
     11 C           9.8222    0.8797    0.0000 C.2     1  UNL1       -0.0478
     12 C           8.0622    0.8450    0.0000 C.ar    1  UNL1        0.1418
     13 C           8.0622   -1.1550    0.0000 C.ar    1  UNL1        0.0233
     14 C           7.1962    0.3450    0.0000 C.ar    1  UNL1        0.1053
     15 C           7.1962   -0.6550    0.0000 C.ar    1  UNL1        0.1379
     16 C           6.3301    0.8450    0.0000 C.2     1  UNL1        0.1931
     17 C           5.4641    0.3450    0.0000 C.2     1  UNL1       -0.0135
     18 C           6.3301   -2.1550    0.0000 C.3     1  UNL1        0.0788
     19 C           4.5981    0.8450    0.0000 C.2     1  UNL1       -0.0510
     20 C           3.7320    0.3450    0.0000 C.ar    1  UNL1       -0.0249
     21 C           2.8660    0.8450    0.0000 C.ar    1  UNL1       -0.0546
     22 C           3.7320   -0.6550    0.0000 C.ar    1  UNL1       -0.0546
     23 C           2.0000    0.3450    0.0000 C.ar    1  UNL1       -0.0612
     24 C           2.8660   -1.1550    0.0000 C.ar    1  UNL1       -0.0612
     25 C           2.0000   -0.6550    0.0000 C.ar    1  UNL1       -0.0617
     26 H          11.2639    0.6779    0.0000 H       1  UNL1        0.0611
     27 H          11.7258   -1.2997    0.0000 H       1  UNL1        0.0271
     28 H          12.3482   -0.6821    0.0000 H       1  UNL1        0.0271
     29 H          11.7306   -0.0597    0.0000 H       1  UNL1        0.0271
     30 H          10.6867   -1.8517    0.0000 H       1  UNL1        0.0271
     31 H          11.5328   -2.0819    0.0000 H       1  UNL1        0.0271
     32 H          11.7630   -1.2358    0.0000 H       1  UNL1        0.0271
     33 H           9.8150    1.4996    0.0000 H       1  UNL1        0.0624
     34 H           8.0622   -1.7750    0.0000 H       1  UNL1        0.0691
     35 H           8.5991    2.1550    0.0000 H       1  UNL1        0.2922
     36 H           5.4641   -0.2750    0.0000 H       1  UNL1        0.0656
     37 H           4.5981    1.4650    0.0000 H       1  UNL1        0.0625
     38 H           5.7101   -2.1550    0.0000 H       1  UNL1        0.0660
     39 H           6.3301   -2.7750    0.0000 H       1  UNL1        0.0660
     40 H           6.9501   -2.1550    0.0000 H       1  UNL1        0.0660
     41 H           2.8660    1.4650    0.0000 H       1  UNL1        0.0623
     42 H           4.2690   -0.9650    0.0000 H       1  UNL1        0.0623
     43 H           1.4631    0.6550    0.0000 H       1  UNL1        0.0618
     44 H           2.8660   -1.7750    0.0000 H       1  UNL1        0.0618
     45 H           1.4631   -0.9650    0.0000 H       1  UNL1        0.0618
@<TRIPOS>BOND
     1     1     5    1
     2     1     8    1
     3     2    15    1
     4     2    18    1
     5     3    12    1
     6     3    35    1
     7     4    16    2
     8     5     6    1
     9     5     9    1
    10     5    10    1
    11     6    11    2
    12     6    26    1
    13     7     8   ar
    14     7    11    1
    15     7    12   ar
    16     8    13   ar
    17     9    27    1
    18     9    28    1
    19     9    29    1
    20    10    30    1
    21    10    31    1
    22    10    32    1
    23    11    33    1
    24    12    14   ar
    25    13    15   ar
    26    13    34    1
    27    14    15   ar
    28    14    16    1
    29    16    17    1
    30    17    19    2
    31    17    36    1
    32    18    38    1
    33    18    39    1
    34    18    40    1
    35    19    20    1
    36    19    37    1
    37    20    21   ar
    38    20    22   ar
    39    21    23   ar
    40    21    41    1
    41    22    24   ar
    42    22    42    1
    43    23    25   ar
    44    23    43    1
    45    24    25   ar
    46    24    44    1
    47    25    45    1
