@<TRIPOS>MOLECULE
IMPHY001208
 91 96 0 0 0
SMALL
GASTEIGER

@<TRIPOS>ATOM
      1 O           9.5840   -2.2445    0.0000 O.3     1  UNL1       -0.3719
      2 O           9.8321    0.0339    0.0000 O.3     1  UNL1       -0.4546
      3 O           5.4639   -1.4630    0.0000 O.3     1  UNL1       -0.4574
      4 O           7.2220   -4.5354    0.0000 O.3     1  UNL1       -0.3910
      5 O           5.3882    4.1854    0.0000 O.2     1  UNL1       -0.4708
      6 O          10.6982   -1.4661    0.0000 O.2     1  UNL1       -0.2453
      7 O           4.5806   -2.9529    0.0000 O.2     1  UNL1       -0.2453
      8 C           7.2341   -1.4661    0.0000 C.3     1  UNL1        0.0147
      9 C           8.1001   -1.9661    0.0000 C.3     1  UNL1        0.0077
     10 C           7.2341   -0.4661    0.0000 C.3     1  UNL1       -0.0193
     11 C           8.1001    0.0339    0.0000 C.3     1  UNL1        0.0323
     12 C           8.1161   -3.0076    0.0000 C.3     1  UNL1        0.0232
     13 C           8.9661   -1.4661    0.0000 C.3     1  UNL1        0.1004
     14 C           8.9661   -0.4661    0.0000 C.3     1  UNL1        0.1389
     15 C           6.3241   -1.9730    0.0000 C.3     1  UNL1        0.1117
     16 C           6.3241    0.0407    0.0000 C.3     1  UNL1       -0.0479
     17 C           8.1161    1.0754    0.0000 C.2     1  UNL1       -0.0572
     18 C           7.2181    1.6032    0.0000 C.3     1  UNL1       -0.0033
     19 C           7.2181   -3.5354    0.0000 C.3     1  UNL1        0.0664
     20 C           9.1042   -3.1148    0.0000 C.3     1  UNL1        0.0563
     21 C           6.3160   -3.0146    0.0000 C.3     1  UNL1        0.0116
     22 C           6.3160    1.0823    0.0000 C.3     1  UNL1       -0.0430
     23 C           6.3680   -0.9661    0.0000 C.3     1  UNL1       -0.0555
     24 C           8.9661    0.5339    0.0000 C.3     1  UNL1       -0.0521
     25 C           7.4438    2.6137    0.0000 C.3     1  UNL1       -0.0004
     26 C           8.6261   -3.8678    0.0000 C.3     1  UNL1       -0.0547
     27 C           8.8892    1.7643    0.0000 C.2     1  UNL1       -0.0830
     28 C           8.4745    2.7131    0.0000 C.3     1  UNL1       -0.0267
     29 C           6.3560    2.1098    0.0000 C.3     1  UNL1       -0.0553
     30 C           6.7817    3.3631    0.0000 C.ar    1  UNL1       -0.0055
     31 C          10.6982   -0.4661    0.0000 C.2     1  UNL1        0.3349
     32 C           4.5921   -1.9529    0.0000 C.2     1  UNL1        0.3348
     33 C           6.9989    4.3393    0.0000 C.ar    1  UNL1       -0.0204
     34 C           5.7863    3.2680    0.0000 C.ar    1  UNL1        0.0951
     35 C          11.5642    0.0339    0.0000 C.2     1  UNL1        0.0293
     36 C           3.7319   -1.4430    0.0000 C.2     1  UNL1        0.0293
     37 C           6.1376    4.8474    0.0000 C.ar    1  UNL1        0.0920
     38 C          11.5642    1.0339    0.0000 C.3     1  UNL1       -0.0333
     39 C          12.4302   -0.4661    0.0000 C.2     1  UNL1       -0.0774
     40 C           3.7435   -0.4430    0.0000 C.3     1  UNL1       -0.0333
     41 C           2.8602   -1.9329    0.0000 C.2     1  UNL1       -0.0774
     42 C          13.2962    0.0339    0.0000 C.3     1  UNL1       -0.0461
     43 C           2.0000   -1.4229    0.0000 C.3     1  UNL1       -0.0461
     44 H           7.3640   -2.3911    0.0000 H       1  UNL1        0.0340
     45 H           7.9702   -0.8911    0.0000 H       1  UNL1        0.0317
     46 H           9.7687   -1.1863    0.0000 H       1  UNL1        0.0636
     47 H           9.5030   -0.7761    0.0000 H       1  UNL1        0.0769
     48 H           5.7842   -2.2778    0.0000 H       1  UNL1        0.0740
     49 H           5.7124    0.1421    0.0000 H       1  UNL1        0.0269
     50 H           6.1195   -0.5446    0.0000 H       1  UNL1        0.0269
     51 H           7.7568   -3.8423    0.0000 H       1  UNL1        0.0601
     52 H           8.9568   -3.7170    0.0000 H       1  UNL1        0.0566
     53 H           9.6818   -3.3401    0.0000 H       1  UNL1        0.0566
     54 H           5.7060   -2.9038    0.0000 H       1  UNL1        0.0326
     55 H           6.1025   -3.5966    0.0000 H       1  UNL1        0.0326
     56 H           6.1025    1.6644    0.0000 H       1  UNL1        0.0274
     57 H           5.7060    0.9715    0.0000 H       1  UNL1        0.0274
     58 H           6.6780   -0.4292    0.0000 H       1  UNL1        0.0236
     59 H           5.8311   -0.6561    0.0000 H       1  UNL1        0.0236
     60 H           6.0580   -1.5030    0.0000 H       1  UNL1        0.0236
     61 H           9.2761   -0.0030    0.0000 H       1  UNL1        0.0239
     62 H           9.5030    0.8439    0.0000 H       1  UNL1        0.0239
     63 H           8.6561    1.0708    0.0000 H       1  UNL1        0.0239
     64 H           7.6712    3.1905    0.0000 H       1  UNL1        0.0361
     65 H           8.0928   -4.1840    0.0000 H       1  UNL1        0.0237
     66 H           8.9423   -4.4011    0.0000 H       1  UNL1        0.0237
     67 H           9.1594   -3.5516    0.0000 H       1  UNL1        0.0237
     68 H           9.4948    1.6318    0.0000 H       1  UNL1        0.0572
     69 H           9.0656    2.9003    0.0000 H       1  UNL1        0.0314
     70 H           8.3504    3.3206    0.0000 H       1  UNL1        0.0314
     71 H           6.6701    2.6443    0.0000 H       1  UNL1        0.0238
     72 H           5.8214    2.4239    0.0000 H       1  UNL1        0.0238
     73 H           6.0418    1.5753    0.0000 H       1  UNL1        0.0238
     74 H           6.6862   -4.8474    0.0000 H       1  UNL1        0.2098
     75 H           7.5676    4.5861    0.0000 H       1  UNL1        0.0652
     76 H           5.4712    2.7340    0.0000 H       1  UNL1        0.1032
     77 H           6.0786    5.4646    0.0000 H       1  UNL1        0.1029
     78 H          12.1842    1.0339    0.0000 H       1  UNL1        0.0280
     79 H          11.5642    1.6539    0.0000 H       1  UNL1        0.0280
     80 H          10.9442    1.0339    0.0000 H       1  UNL1        0.0280
     81 H          12.4302   -1.0861    0.0000 H       1  UNL1        0.0574
     82 H           4.3635   -0.4502    0.0000 H       1  UNL1        0.0280
     83 H           3.7507    0.1769    0.0000 H       1  UNL1        0.0280
     84 H           3.1235   -0.4358    0.0000 H       1  UNL1        0.0280
     85 H           2.8530   -2.5529    0.0000 H       1  UNL1        0.0574
     86 H          13.6062   -0.5030    0.0000 H       1  UNL1        0.0272
     87 H          13.8332    0.3439    0.0000 H       1  UNL1        0.0272
     88 H          12.9862    0.5708    0.0000 H       1  UNL1        0.0272
     89 H           2.3162   -0.8896    0.0000 H       1  UNL1        0.0272
     90 H           1.4667   -1.1067    0.0000 H       1  UNL1        0.0272
     91 H           1.6838   -1.9562    0.0000 H       1  UNL1        0.0272
@<TRIPOS>BOND
     1     1    13    1
     2     1    20    1
     3    14     2    1
     4     2    31    1
     5    15     3    1
     6     3    32    1
     7    19     4    1
     8     4    74    1
     9     5    34   ar
    10     5    37   ar
    11     6    31    2
    12     7    32    2
    13     8     9    1
    14     8    10    1
    15     8    15    1
    16     8    23    1
    17     9    12    1
    18     9    13    1
    19     9    44    1
    20    10    11    1
    21    10    16    1
    22    10    45    1
    23    11    14    1
    24    11    17    1
    25    11    24    1
    26    12    19    1
    27    12    20    1
    28    12    26    1
    29    13    14    1
    30    13    46    1
    31    14    47    1
    32    15    21    1
    33    15    48    1
    34    16    22    1
    35    16    49    1
    36    16    50    1
    37    17    18    1
    38    17    27    2
    39    18    22    1
    40    18    25    1
    41    18    29    1
    42    19    21    1
    43    19    51    1
    44    20    52    1
    45    20    53    1
    46    21    54    1
    47    21    55    1
    48    22    56    1
    49    22    57    1
    50    23    58    1
    51    23    59    1
    52    23    60    1
    53    24    61    1
    54    24    62    1
    55    24    63    1
    56    25    28    1
    57    25    30    1
    58    25    64    1
    59    26    65    1
    60    26    66    1
    61    26    67    1
    62    27    28    1
    63    27    68    1
    64    28    69    1
    65    28    70    1
    66    29    71    1
    67    29    72    1
    68    29    73    1
    69    30    33   ar
    70    30    34   ar
    71    31    35    1
    72    32    36    1
    73    33    37   ar
    74    33    75    1
    75    34    76    1
    76    35    38    1
    77    35    39    2
    78    36    40    1
    79    36    41    2
    80    37    77    1
    81    38    78    1
    82    38    79    1
    83    38    80    1
    84    39    42    1
    85    39    81    1
    86    40    82    1
    87    40    83    1
    88    40    84    1
    89    41    43    1
    90    41    85    1
    91    42    86    1
    92    42    87    1
    93    42    88    1
    94    43    89    1
    95    43    90    1
    96    43    91    1
