@<TRIPOS>MOLECULE
IMPHY016509
 30 29 0 0 0
SMALL
GASTEIGER

@<TRIPOS>ATOM
      1 O           4.5981    0.7500    0.0000 O.3     1  UNL1       -0.4605
      2 O           5.4641   -0.7500    0.0000 O.2     1  UNL1       -0.2508
      3 C           8.0622    0.7500    0.0000 C.3     1  UNL1       -0.0526
      4 C           8.9282    0.2500    0.0000 C.3     1  UNL1       -0.0533
      5 C           7.1962    0.2500    0.0000 C.3     1  UNL1       -0.0430
      6 C           9.7942    0.7500    0.0000 C.3     1  UNL1       -0.0559
      7 C           6.3301    0.7500    0.0000 C.3     1  UNL1        0.0449
      8 C          10.6603    0.2500    0.0000 C.3     1  UNL1       -0.0653
      9 C           5.4641    0.2500    0.0000 C.2     1  UNL1        0.3074
     10 C           3.7320    0.2500    0.0000 C.3     1  UNL1        0.1104
     11 C           2.8660    0.7500    0.0000 C.2     1  UNL1       -0.0541
     12 C           2.0000    0.2500    0.0000 C.2     1  UNL1       -0.0995
     13 H           8.4607    1.2250    0.0000 H       1  UNL1        0.0265
     14 H           7.6636    1.2250    0.0000 H       1  UNL1        0.0265
     15 H           8.5297   -0.2249    0.0000 H       1  UNL1        0.0265
     16 H           9.3267   -0.2249    0.0000 H       1  UNL1        0.0265
     17 H           6.7976   -0.2249    0.0000 H       1  UNL1        0.0270
     18 H           7.5947   -0.2249    0.0000 H       1  UNL1        0.0270
     19 H          10.1928    1.2250    0.0000 H       1  UNL1        0.0263
     20 H           9.3957    1.2250    0.0000 H       1  UNL1        0.0263
     21 H           6.7287    1.2250    0.0000 H       1  UNL1        0.0377
     22 H           5.9316    1.2250    0.0000 H       1  UNL1        0.0377
     23 H          10.3503   -0.2869    0.0000 H       1  UNL1        0.0230
     24 H          11.1972   -0.0600    0.0000 H       1  UNL1        0.0230
     25 H          10.9703    0.7869    0.0000 H       1  UNL1        0.0230
     26 H           3.3335   -0.2249    0.0000 H       1  UNL1        0.0742
     27 H           4.1306   -0.2249    0.0000 H       1  UNL1        0.0742
     28 H           2.8660    1.3700    0.0000 H       1  UNL1        0.0600
     29 H           1.4631    0.5600    0.0000 H       1  UNL1        0.0533
     30 H           2.0000   -0.3700    0.0000 H       1  UNL1        0.0533
@<TRIPOS>BOND
     1     1     9    1
     2     1    10    1
     3     2     9    2
     4     3     4    1
     5     3     5    1
     6     3    13    1
     7     3    14    1
     8     4     6    1
     9     4    15    1
    10     4    16    1
    11     5     7    1
    12     5    17    1
    13     5    18    1
    14     6     8    1
    15     6    19    1
    16     6    20    1
    17     7     9    1
    18     7    21    1
    19     7    22    1
    20     8    23    1
    21     8    24    1
    22     8    25    1
    23    10    11    1
    24    10    26    1
    25    10    27    1
    26    11    12    2
    27    11    28    1
    28    12    29    1
    29    12    30    1
