@<TRIPOS>MOLECULE
IMPHY004698
 68 71 0 0 0
SMALL
GASTEIGER

@<TRIPOS>ATOM
      1 O           6.0290    1.8388    0.0000 O.3     1  UNL1       -0.4808
      2 O           7.7991    3.8976    0.0000 O.3     1  UNL1       -0.3875
      3 O           4.2690    4.8734    0.0000 O.3     1  UNL1       -0.5063
      4 O           2.5369    1.8734    0.0000 O.3     1  UNL1       -0.5062
      5 O           2.9835   -0.6587    0.0000 O.3     1  UNL1       -0.5055
      6 O           6.2386    0.5262    0.0000 O.3     1  UNL1       -0.5060
      7 O           5.6371   -2.8853    0.0000 O.3     1  UNL1       -0.4939
      8 O          10.3991    2.3393    0.0000 O.3     1  UNL1       -0.5033
      9 O          10.3914    0.3393    0.0000 O.3     1  UNL1       -0.5033
     10 O           2.6826   -2.3644    0.0000 O.2     1  UNL1       -0.2918
     11 C           6.9350    3.3943    0.0000 C.3     1  UNL1        0.1004
     12 C           6.9350    2.3526    0.0000 C.3     1  UNL1        0.1513
     13 C           6.0290    3.9081    0.0000 C.3     1  UNL1        0.0092
     14 C           5.1350    3.3734    0.0000 C.ar    1  UNL1        0.0387
     15 C           5.1350    2.3734    0.0000 C.ar    1  UNL1        0.1352
     16 C           4.2690    1.8734    0.0000 C.ar    1  UNL1        0.0407
     17 C           7.7991    1.8493    0.0000 C.ar    1  UNL1       -0.0012
     18 C           4.2690    0.8735    0.0000 C.3     1  UNL1        0.0115
     19 C           4.2690    3.8734    0.0000 C.ar    1  UNL1        0.1271
     20 C           3.4030    2.3734    0.0000 C.ar    1  UNL1        0.1273
     21 C           4.6110   -0.0662    0.0000 C.ar    1  UNL1        0.0411
     22 C           3.4030    3.3734    0.0000 C.ar    1  UNL1        0.0221
     23 C           8.6671    2.3460    0.0000 C.ar    1  UNL1       -0.0098
     24 C           7.7953    0.8493    0.0000 C.ar    1  UNL1       -0.0513
     25 C           3.9682   -0.8323    0.0000 C.ar    1  UNL1        0.1378
     26 C           5.5958   -0.2399    0.0000 C.ar    1  UNL1        0.1302
     27 C           4.3102   -1.7720    0.0000 C.ar    1  UNL1        0.1010
     28 C           5.9378   -1.1796    0.0000 C.ar    1  UNL1        0.0337
     29 C           5.2950   -1.9456    0.0000 C.ar    1  UNL1        0.1404
     30 C           9.5312    1.8426    0.0000 C.ar    1  UNL1        0.1586
     31 C           8.6594    0.3460    0.0000 C.ar    1  UNL1       -0.0162
     32 C           9.5273    0.8426    0.0000 C.ar    1  UNL1        0.1582
     33 C           3.6674   -2.5380    0.0000 C.2     1  UNL1        0.1702
     34 C           6.9226   -1.3532    0.0000 C.3     1  UNL1       -0.0327
     35 C           4.0095   -3.4777    0.0000 C.3     1  UNL1        0.0105
     36 C           3.3667   -4.2438    0.0000 C.3     1  UNL1       -0.0489
     37 C           3.7087   -5.1834    0.0000 C.3     1  UNL1       -0.0649
     38 C           6.6219   -3.0590    0.0000 C.3     1  UNL1        0.0788
     39 H           7.4726    3.0853    0.0000 H       1  UNL1        0.0637
     40 H           7.4726    2.6616    0.0000 H       1  UNL1        0.0811
     41 H           6.4226    4.3871    0.0000 H       1  UNL1        0.0342
     42 H           5.6244    4.3779    0.0000 H       1  UNL1        0.0342
     43 H           3.6997    1.1190    0.0000 H       1  UNL1        0.0366
     44 H           4.8796    0.9811    0.0000 H       1  UNL1        0.0366
     45 H           2.8660    3.6834    0.0000 H       1  UNL1        0.0691
     46 H           7.7967    4.5176    0.0000 H       1  UNL1        0.2100
     47 H           8.6694    2.9660    0.0000 H       1  UNL1        0.0659
     48 H           7.2571    0.5414    0.0000 H       1  UNL1        0.0623
     49 H           8.6570   -0.2740    0.0000 H       1  UNL1        0.0655
     50 H           3.7320    5.1834    0.0000 H       1  UNL1        0.2921
     51 H           2.0000    2.1834    0.0000 H       1  UNL1        0.2921
     52 H           6.8150   -1.9638    0.0000 H       1  UNL1        0.0280
     53 H           7.5332   -1.4609    0.0000 H       1  UNL1        0.0280
     54 H           7.0303   -0.7426    0.0000 H       1  UNL1        0.0280
     55 H           4.4080   -3.9527    0.0000 H       1  UNL1        0.0345
     56 H           4.5464   -3.1677    0.0000 H       1  UNL1        0.0345
     57 H           2.5850   -1.1336    0.0000 H       1  UNL1        0.2922
     58 H           6.8492    0.4185    0.0000 H       1  UNL1        0.2922
     59 H           2.9682   -3.7688    0.0000 H       1  UNL1        0.0267
     60 H           2.8298   -4.5538    0.0000 H       1  UNL1        0.0267
     61 H          10.9348    2.0272    0.0000 H       1  UNL1        0.2923
     62 H          10.3890   -0.2807    0.0000 H       1  UNL1        0.2923
     63 H           3.1261   -5.3955    0.0000 H       1  UNL1        0.0230
     64 H           3.9208   -5.7661    0.0000 H       1  UNL1        0.0230
     65 H           4.2913   -4.9714    0.0000 H       1  UNL1        0.0230
     66 H           6.5142   -3.6696    0.0000 H       1  UNL1        0.0660
     67 H           7.2325   -3.1666    0.0000 H       1  UNL1        0.0660
     68 H           6.7295   -2.4484    0.0000 H       1  UNL1        0.0660
@<TRIPOS>BOND
     1     1    12    1
     2     1    15    1
     3    11     2    1
     4     2    46    1
     5     3    19    1
     6     3    50    1
     7     4    20    1
     8     4    51    1
     9     5    25    1
    10     5    57    1
    11     6    26    1
    12     6    58    1
    13     7    29    1
    14     7    38    1
    15     8    30    1
    16     8    61    1
    17     9    32    1
    18     9    62    1
    19    10    33    2
    20    11    12    1
    21    11    13    1
    22    11    39    1
    23    12    17    1
    24    12    40    1
    25    13    14    1
    26    13    41    1
    27    13    42    1
    28    14    15   ar
    29    14    19   ar
    30    15    16   ar
    31    16    18    1
    32    16    20   ar
    33    17    23   ar
    34    17    24   ar
    35    18    21    1
    36    18    43    1
    37    18    44    1
    38    19    22   ar
    39    20    22   ar
    40    21    25   ar
    41    21    26   ar
    42    22    45    1
    43    23    30   ar
    44    23    47    1
    45    24    31   ar
    46    24    48    1
    47    25    27   ar
    48    26    28   ar
    49    27    29   ar
    50    27    33    1
    51    28    29   ar
    52    28    34    1
    53    30    32   ar
    54    31    32   ar
    55    31    49    1
    56    33    35    1
    57    34    52    1
    58    34    53    1
    59    34    54    1
    60    35    36    1
    61    35    55    1
    62    35    56    1
    63    36    37    1
    64    36    59    1
    65    36    60    1
    66    37    63    1
    67    37    64    1
    68    37    65    1
    69    38    66    1
    70    38    67    1
    71    38    68    1
