@<TRIPOS>MOLECULE
IMPHY009194
 55 57 0 0 0
SMALL
GASTEIGER

@<TRIPOS>ATOM
      1 O           5.1350   -0.1550    0.0000 O.3     1  UNL1       -0.3313
      2 O           6.8671   -0.1550    0.0000 O.3     1  UNL1       -0.4600
      3 O           5.1350   -3.1550    0.0000 O.3     1  UNL1       -0.3864
      4 O           3.4030   -2.1550    0.0000 O.3     1  UNL1       -0.3865
      5 O           6.8671   -2.1550    0.0000 O.3     1  UNL1       -0.3829
      6 O           2.5369   -0.6550    0.0000 O.3     1  UNL1       -0.3924
      7 O          10.3312   -0.1550    0.0000 O.3     1  UNL1       -0.3868
      8 O           8.5991   -0.1550    0.0000 O.2     1  UNL1       -0.2918
      9 O           5.1350    2.8450    0.0000 O.3     1  UNL1       -0.5066
     10 O          13.7953    2.8450    0.0000 O.3     1  UNL1       -0.5068
     11 C           5.1350   -2.1550    0.0000 C.3     1  UNL1        0.1152
     12 C           4.2690   -1.6550    0.0000 C.3     1  UNL1        0.1120
     13 C           6.0010   -1.6550    0.0000 C.3     1  UNL1        0.1454
     14 C           4.2690   -0.6550    0.0000 C.3     1  UNL1        0.1140
     15 C           6.0010   -0.6550    0.0000 C.3     1  UNL1        0.2308
     16 C           3.4030   -0.1550    0.0000 C.3     1  UNL1        0.0731
     17 C           6.8671    0.8450    0.0000 C.ar    1  UNL1        0.1379
     18 C           7.7331    1.3450    0.0000 C.ar    1  UNL1        0.0594
     19 C           6.0010    1.3450    0.0000 C.ar    1  UNL1        0.0224
     20 C           8.5991    0.8450    0.0000 C.2     1  UNL1        0.1694
     21 C           9.4651    1.3450    0.0000 C.3     1  UNL1        0.0408
     22 C          10.3312    0.8450    0.0000 C.3     1  UNL1        0.0872
     23 C           7.7331    2.3450    0.0000 C.ar    1  UNL1       -0.0443
     24 C           6.0010    2.3450    0.0000 C.ar    1  UNL1        0.1204
     25 C           6.8671    2.8450    0.0000 C.ar    1  UNL1       -0.0193
     26 C          11.1972    1.3450    0.0000 C.ar    1  UNL1       -0.0185
     27 C          12.0632    0.8450    0.0000 C.ar    1  UNL1       -0.0527
     28 C          11.1972    2.3450    0.0000 C.ar    1  UNL1       -0.0527
     29 C          12.9292    1.3450    0.0000 C.ar    1  UNL1       -0.0198
     30 C          12.0632    2.8450    0.0000 C.ar    1  UNL1       -0.0198
     31 C          12.9292    2.3450    0.0000 C.ar    1  UNL1        0.1169
     32 H           5.6720   -2.4650    0.0000 H       1  UNL1        0.0648
     33 H           4.2690   -2.2750    0.0000 H       1  UNL1        0.0647
     34 H           6.5380   -1.3450    0.0000 H       1  UNL1        0.0683
     35 H           4.2690   -0.0350    0.0000 H       1  UNL1        0.0647
     36 H           6.0010   -0.0350    0.0000 H       1  UNL1        0.1084
     37 H           3.8015    0.3199    0.0000 H       1  UNL1        0.0584
     38 H           3.0044    0.3199    0.0000 H       1  UNL1        0.0584
     39 H           4.5981   -3.4650    0.0000 H       1  UNL1        0.2100
     40 H           3.4030   -2.7750    0.0000 H       1  UNL1        0.2100
     41 H           6.8671   -2.7750    0.0000 H       1  UNL1        0.2102
     42 H           2.0000   -0.3450    0.0000 H       1  UNL1        0.2095
     43 H           5.4641    1.0350    0.0000 H       1  UNL1        0.0691
     44 H           9.8637    1.8200    0.0000 H       1  UNL1        0.0374
     45 H           9.0666    1.8200    0.0000 H       1  UNL1        0.0374
     46 H           9.7942    0.5350    0.0000 H       1  UNL1        0.0648
     47 H           8.2700    2.6550    0.0000 H       1  UNL1        0.0627
     48 H           6.8671    3.4650    0.0000 H       1  UNL1        0.0654
     49 H          12.0632    0.2250    0.0000 H       1  UNL1        0.0622
     50 H          10.6603    2.6550    0.0000 H       1  UNL1        0.0622
     51 H          10.8681   -0.4650    0.0000 H       1  UNL1        0.2102
     52 H          13.4662    1.0350    0.0000 H       1  UNL1        0.0654
     53 H          12.0632    3.4650    0.0000 H       1  UNL1        0.0654
     54 H           5.1350    3.4650    0.0000 H       1  UNL1        0.2921
     55 H          14.3322    2.5350    0.0000 H       1  UNL1        0.2921
@<TRIPOS>BOND
     1     1    14    1
     2     1    15    1
     3     2    15    1
     4     2    17    1
     5     3    11    1
     6     3    39    1
     7     4    12    1
     8     4    40    1
     9     5    13    1
    10     5    41    1
    11     6    16    1
    12     6    42    1
    13     7    22    1
    14     7    51    1
    15     8    20    2
    16     9    24    1
    17     9    54    1
    18    10    31    1
    19    10    55    1
    20    11    12    1
    21    11    13    1
    22    11    32    1
    23    12    14    1
    24    12    33    1
    25    13    15    1
    26    13    34    1
    27    14    16    1
    28    14    35    1
    29    15    36    1
    30    16    37    1
    31    16    38    1
    32    17    18   ar
    33    17    19   ar
    34    18    20    1
    35    18    23   ar
    36    19    24   ar
    37    19    43    1
    38    20    21    1
    39    21    22    1
    40    21    44    1
    41    21    45    1
    42    22    26    1
    43    22    46    1
    44    23    25   ar
    45    23    47    1
    46    24    25   ar
    47    25    48    1
    48    26    27   ar
    49    26    28   ar
    50    27    29   ar
    51    27    49    1
    52    28    30   ar
    53    28    50    1
    54    29    31   ar
    55    29    52    1
    56    30    31   ar
    57    30    53    1
