@<TRIPOS>MOLECULE
IMPHY004237
 68 72 0 0 0
SMALL
GASTEIGER

@<TRIPOS>ATOM
      1 O           6.8671   -3.6796    0.0000 O.3     1  UNL1       -0.3366
      2 O           7.8376   -2.1850    0.0000 O.3     1  UNL1       -0.3457
      3 O           5.1350   -1.6796    0.0000 O.3     1  UNL1       -0.3313
      4 O          10.1818   -2.3432    0.0000 O.3     1  UNL1       -0.3812
      5 O           8.8546   -4.5644    0.0000 O.3     1  UNL1       -0.3837
      6 O           5.1350   -4.6796    0.0000 O.3     1  UNL1       -0.3863
      7 O           6.8671   -1.6796    0.0000 O.3     1  UNL1       -0.4606
      8 O           3.4030   -3.6796    0.0000 O.3     1  UNL1       -0.3865
      9 O          11.0100   -3.2033    0.0000 O.3     1  UNL1       -0.3920
     10 O           2.5369   -2.1796    0.0000 O.3     1  UNL1       -0.3924
     11 O           8.6230    1.3829    0.0000 O.2     1  UNL1       -0.4544
     12 O           5.1208    1.3996    0.0000 O.3     1  UNL1       -0.5058
     13 O           6.0308    2.8930    0.0000 O.2     1  UNL1       -0.2869
     14 O          12.0987    4.3696    0.0000 O.3     1  UNL1       -0.5068
     15 C           6.0010   -3.1796    0.0000 C.3     1  UNL1        0.1519
     16 C           9.3158   -2.8432    0.0000 C.3     1  UNL1        0.1425
     17 C           8.6466   -3.5863    0.0000 C.3     1  UNL1        0.1387
     18 C           5.1350   -3.6796    0.0000 C.3     1  UNL1        0.1155
     19 C           7.7331   -3.1796    0.0000 C.3     1  UNL1        0.1885
     20 C           4.2690   -3.1796    0.0000 C.3     1  UNL1        0.1120
     21 C           6.0010   -2.1796    0.0000 C.3     1  UNL1        0.2312
     22 C           4.2690   -2.1796    0.0000 C.3     1  UNL1        0.1140
     23 C           8.8158   -1.9771    0.0000 C.3     1  UNL1        0.0843
     24 C          10.0589   -3.5123    0.0000 C.3     1  UNL1        0.0778
     25 C           3.4030   -1.6796    0.0000 C.3     1  UNL1        0.0731
     26 C           6.8671   -0.6796    0.0000 C.ar    1  UNL1        0.1310
     27 C           7.7671   -0.1553    0.0000 C.ar    1  UNL1        0.0235
     28 C           5.9670   -0.1553    0.0000 C.ar    1  UNL1        0.0226
     29 C           7.7551    0.8863    0.0000 C.ar    1  UNL1        0.1462
     30 C           5.9790    0.8863    0.0000 C.ar    1  UNL1        0.1347
     31 C           6.8910    1.3896    0.0000 C.ar    1  UNL1        0.1055
     32 C           6.8948    2.3896    0.0000 C.ar    1  UNL1        0.1966
     33 C           8.6269    2.3829    0.0000 C.ar    1  UNL1        0.1392
     34 C           7.7628    2.8863    0.0000 C.ar    1  UNL1        0.0288
     35 C           9.4948    2.8796    0.0000 C.ar    1  UNL1        0.0176
     36 C          10.3589    2.3763    0.0000 C.ar    1  UNL1       -0.0476
     37 C           9.4987    3.8796    0.0000 C.ar    1  UNL1       -0.0476
     38 C          11.2269    2.8729    0.0000 C.ar    1  UNL1       -0.0195
     39 C          10.3666    4.3762    0.0000 C.ar    1  UNL1       -0.0195
     40 C          11.2307    3.8729    0.0000 C.ar    1  UNL1        0.1169
     41 H           6.0010   -3.7996    0.0000 H       1  UNL1        0.0687
     42 H           9.2455   -3.7468    0.0000 H       1  UNL1        0.0675
     43 H           4.5981   -3.9896    0.0000 H       1  UNL1        0.0648
     44 H           7.7655   -3.7987    0.0000 H       1  UNL1        0.0938
     45 H           3.7320   -2.8696    0.0000 H       1  UNL1        0.0647
     46 H           6.5380   -2.4896    0.0000 H       1  UNL1        0.1084
     47 H           4.2690   -1.5596    0.0000 H       1  UNL1        0.0647
     48 H           9.3822   -1.7250    0.0000 H       1  UNL1        0.0591
     49 H           8.6242   -1.3875    0.0000 H       1  UNL1        0.0591
     50 H           9.5703   -3.8940    0.0000 H       1  UNL1        0.0587
     51 H          10.3500   -4.0597    0.0000 H       1  UNL1        0.0587
     52 H           3.8015   -1.2046    0.0000 H       1  UNL1        0.0584
     53 H           3.0044   -1.2046    0.0000 H       1  UNL1        0.0584
     54 H          10.1818   -1.7232    0.0000 H       1  UNL1        0.2105
     55 H           8.3938   -4.9793    0.0000 H       1  UNL1        0.2101
     56 H           4.5981   -4.9896    0.0000 H       1  UNL1        0.2100
     57 H           3.4030   -4.2996    0.0000 H       1  UNL1        0.2100
     58 H          11.4707   -3.6181    0.0000 H       1  UNL1        0.2095
     59 H           2.0000   -1.8696    0.0000 H       1  UNL1        0.2095
     60 H           8.3064   -0.4611    0.0000 H       1  UNL1        0.0691
     61 H           5.4277   -0.4611    0.0000 H       1  UNL1        0.0691
     62 H           7.7652    3.5063    0.0000 H       1  UNL1        0.0693
     63 H           4.5792    1.0979    0.0000 H       1  UNL1        0.2922
     64 H          10.3565    1.7563    0.0000 H       1  UNL1        0.0626
     65 H           8.9630    4.1916    0.0000 H       1  UNL1        0.0626
     66 H          11.7626    2.5608    0.0000 H       1  UNL1        0.0654
     67 H          10.3690    4.9962    0.0000 H       1  UNL1        0.0654
     68 H          12.1011    4.9896    0.0000 H       1  UNL1        0.2921
@<TRIPOS>BOND
     1    15     1    1
     2    19     1    1
     3     2    19    1
     4     2    23    1
     5     3    21    1
     6     3    22    1
     7    16     4    1
     8     4    54    1
     9    17     5    1
    10     5    55    1
    11    18     6    1
    12     6    56    1
    13    21     7    1
    14     7    26    1
    15    20     8    1
    16     8    57    1
    17     9    24    1
    18     9    58    1
    19    10    25    1
    20    10    59    1
    21    11    29   ar
    22    11    33   ar
    23    12    30    1
    24    12    63    1
    25    13    32    2
    26    14    40    1
    27    14    68    1
    28    15    18    1
    29    15    21    1
    30    15    41    1
    31    16    17    1
    32    16    23    1
    33    16    24    1
    34    17    19    1
    35    17    42    1
    36    18    20    1
    37    18    43    1
    38    19    44    1
    39    20    22    1
    40    20    45    1
    41    21    46    1
    42    22    25    1
    43    22    47    1
    44    23    48    1
    45    23    49    1
    46    24    50    1
    47    24    51    1
    48    25    52    1
    49    25    53    1
    50    26    27   ar
    51    26    28   ar
    52    27    29   ar
    53    27    60    1
    54    28    30   ar
    55    28    61    1
    56    29    31   ar
    57    30    31   ar
    58    31    32   ar
    59    32    34   ar
    60    33    34   ar
    61    33    35    1
    62    34    62    1
    63    35    36   ar
    64    35    37   ar
    65    36    38   ar
    66    36    64    1
    67    37    39   ar
    68    37    65    1
    69    38    40   ar
    70    38    66    1
    71    39    40   ar
    72    39    67    1
