@<TRIPOS>MOLECULE
IMPHY001690
 49 50 0 0 0
SMALL
GASTEIGER

@<TRIPOS>ATOM
      1 O           5.1350   -0.9050    0.0000 O.3     1  UNL1       -0.3404
      2 O           6.8671   -0.9050    0.0000 O.3     1  UNL1       -0.3093
      3 O           6.0010    0.5950    0.0000 O.2     1  UNL1       -0.4699
      4 O           6.8671   -2.9050    0.0000 O.3     1  UNL1       -0.3841
      5 O           5.1350   -3.9050    0.0000 O.3     1  UNL1       -0.3864
      6 O           3.4030   -2.9050    0.0000 O.3     1  UNL1       -0.3865
      7 O           2.5369   -1.4050    0.0000 O.3     1  UNL1       -0.3924
      8 O           6.0010    3.5950    0.0000 O.3     1  UNL1       -0.4773
      9 O          10.3312    2.0950    0.0000 O.3     1  UNL1       -0.4806
     10 O           7.7331    3.5950    0.0000 O.2     1  UNL1       -0.2454
     11 O           9.4651    0.5950    0.0000 O.2     1  UNL1       -0.2510
     12 C           6.0010   -2.4050    0.0000 C.3     1  UNL1        0.1342
     13 C           5.1350   -2.9050    0.0000 C.3     1  UNL1        0.1141
     14 C           6.0010   -1.4050    0.0000 C.3     1  UNL1        0.1918
     15 C           4.2690   -2.4050    0.0000 C.3     1  UNL1        0.1119
     16 C           4.2690   -1.4050    0.0000 C.3     1  UNL1        0.1130
     17 C           7.7331    0.5950    0.0000 C.3     1  UNL1        0.0471
     18 C           7.7331    1.5950    0.0000 C.3     1  UNL1        0.0158
     19 C           6.8671    0.0950    0.0000 C.3     1  UNL1        0.2102
     20 C           3.4030   -0.9050    0.0000 C.3     1  UNL1        0.0730
     21 C           6.8671    2.0950    0.0000 C.2     1  UNL1        0.0749
     22 C           8.5991    2.0950    0.0000 C.3     1  UNL1        0.0526
     23 C           8.5991    0.0950    0.0000 C.2     1  UNL1       -0.0816
     24 C           6.0010    1.5950    0.0000 C.2     1  UNL1        0.0981
     25 C           6.8671    3.0950    0.0000 C.2     1  UNL1        0.3360
     26 C           9.4651    1.5950    0.0000 C.2     1  UNL1        0.3053
     27 C           8.5991   -0.9050    0.0000 C.2     1  UNL1       -0.1022
     28 H           6.0010   -3.0250    0.0000 H       1  UNL1        0.0671
     29 H           4.5981   -3.2150    0.0000 H       1  UNL1        0.0648
     30 H           6.0010   -0.7850    0.0000 H       1  UNL1        0.0939
     31 H           3.7320   -2.0950    0.0000 H       1  UNL1        0.0647
     32 H           4.2690   -0.7850    0.0000 H       1  UNL1        0.0647
     33 H           8.2700    0.9050    0.0000 H       1  UNL1        0.0410
     34 H           7.7331    2.2150    0.0000 H       1  UNL1        0.0365
     35 H           7.4040   -0.2150    0.0000 H       1  UNL1        0.1062
     36 H           3.8015   -0.4301    0.0000 H       1  UNL1        0.0584
     37 H           3.0044   -0.4301    0.0000 H       1  UNL1        0.0584
     38 H           8.9976    2.5700    0.0000 H       1  UNL1        0.0384
     39 H           8.2006    2.5700    0.0000 H       1  UNL1        0.0384
     40 H           9.1360    0.4050    0.0000 H       1  UNL1        0.0571
     41 H           5.4641    1.9050    0.0000 H       1  UNL1        0.1029
     42 H           6.8671   -3.5250    0.0000 H       1  UNL1        0.2101
     43 H           4.5981   -4.2150    0.0000 H       1  UNL1        0.2100
     44 H           3.4030   -3.5250    0.0000 H       1  UNL1        0.2100
     45 H           2.0000   -1.0950    0.0000 H       1  UNL1        0.2095
     46 H           8.0622   -1.2150    0.0000 H       1  UNL1        0.0532
     47 H           9.1360   -1.2150    0.0000 H       1  UNL1        0.0532
     48 H           6.0010    4.2150    0.0000 H       1  UNL1        0.2954
     49 H          10.8681    1.7850    0.0000 H       1  UNL1        0.2951
@<TRIPOS>BOND
     1     1    14    1
     2     1    16    1
     3    14     2    1
     4    19     2    1
     5     3    19    1
     6     3    24    1
     7    12     4    1
     8     4    42    1
     9    13     5    1
    10     5    43    1
    11    15     6    1
    12     6    44    1
    13     7    20    1
    14     7    45    1
    15     8    25    1
    16     8    48    1
    17     9    26    1
    18     9    49    1
    19    10    25    2
    20    11    26    2
    21    12    13    1
    22    12    14    1
    23    12    28    1
    24    13    15    1
    25    13    29    1
    26    14    30    1
    27    15    16    1
    28    15    31    1
    29    16    20    1
    30    16    32    1
    31    17    18    1
    32    17    19    1
    33    17    23    1
    34    17    33    1
    35    18    21    1
    36    18    22    1
    37    18    34    1
    38    19    35    1
    39    20    36    1
    40    20    37    1
    41    21    24    2
    42    21    25    1
    43    22    26    1
    44    22    38    1
    45    22    39    1
    46    23    27    2
    47    23    40    1
    48    24    41    1
    49    27    46    1
    50    27    47    1
