@<TRIPOS>MOLECULE
IMPHY016781
 20 21 0 0 0
SMALL
GASTEIGER

@<TRIPOS>ATOM
      1 O           3.4559   -1.2380    0.0000 O.3     1  UNL1       -0.3886
      2 C           3.7147   -0.2721    0.0000 C.3     1  UNL1        0.0664
      3 C           3.9735    0.6938    0.0000 C.3     1  UNL1       -0.0383
      4 C           3.2369    1.6764    0.0000 C.3     1  UNL1       -0.0212
      5 C           2.3420   -0.8641    0.0000 C.3     1  UNL1       -0.0237
      6 C           5.1137   -0.7809    0.0000 C.3     1  UNL1       -0.0237
      7 C           2.0000    0.0756    0.0000 C.3     1  UNL1       -0.0475
      8 C           5.3725    0.1850    0.0000 C.3     1  UNL1       -0.0475
      9 H           3.9595    0.0740    0.0000 H       1  UNL1        0.0302
     10 H           3.5547    2.2088    0.0000 H       1  UNL1        0.0296
     11 H           2.6238    1.7684    0.0000 H       1  UNL1        0.0296
     12 H           1.7636   -1.0874    0.0000 H       1  UNL1        0.0293
     13 H           2.5765   -1.4381    0.0000 H       1  UNL1        0.0293
     14 H           4.9187   -1.3695    0.0000 H       1  UNL1        0.0293
     15 H           5.7076   -0.9587    0.0000 H       1  UNL1        0.0293
     16 H           1.8057    0.6643    0.0000 H       1  UNL1        0.0269
     17 H           1.4142   -0.1276    0.0000 H       1  UNL1        0.0269
     18 H           5.9664    0.0072    0.0000 H       1  UNL1        0.0269
     19 H           5.5674    0.7736    0.0000 H       1  UNL1        0.0269
     20 H           3.8943   -1.6764    0.0000 H       1  UNL1        0.2102
@<TRIPOS>BOND
     1     1     2    1
     2     1    20    1
     3     2     4    1
     4     2     5    1
     5     2     6    1
     6     3     4    1
     7     3     7    1
     8     3     8    1
     9     3     9    1
    10     4    10    1
    11     4    11    1
    12     5     7    1
    13     5    12    1
    14     5    13    1
    15     6     8    1
    16     6    14    1
    17     6    15    1
    18     7    16    1
    19     7    17    1
    20     8    18    1
    21     8    19    1
