@<TRIPOS>MOLECULE
IMPHY000232
 88 94 0 0 0
SMALL
GASTEIGER

@<TRIPOS>ATOM
      1 O           5.1598   -0.7929    0.0000 O.3     1  UNL1       -0.4573
      2 O           6.6774   -1.9617    0.0000 O.3     1  UNL1       -0.3790
      3 O           8.5000    1.8001    0.0000 O.3     1  UNL1       -0.3791
      4 O           4.7836    1.5486    0.0000 O.3     1  UNL1       -0.4544
      5 O           6.3748    3.1120    0.0000 O.3     1  UNL1       -0.3823
      6 O           4.3824    2.2581    0.0000 O.3     1  UNL1       -0.3767
      7 O           9.3661   -2.4350    0.0000 O.3     1  UNL1       -0.3824
      8 O           3.4756   -0.3886    0.0000 O.2     1  UNL1       -0.2511
      9 O           3.7866    0.1323    0.0000 O.2     1  UNL1       -0.2449
     10 N           9.6954   -0.0289    0.0000 N.3     1  UNL1       -0.3007
     11 C           7.7487    0.3663    0.0000 C.3     1  UNL1        0.0221
     12 C           7.7487   -0.5013    0.0000 C.3     1  UNL1        0.0043
     13 C           7.0704    0.9073    0.0000 C.3     1  UNL1       -0.0185
     14 C           8.7507    0.2603    0.0000 C.3     1  UNL1        0.0276
     15 C           6.2246   -0.8491    0.0000 C.3     1  UNL1        0.0421
     16 C           6.2246    0.7142    0.0000 C.3     1  UNL1        0.0429
     17 C           5.8482   -0.0675    0.0000 C.3     1  UNL1        0.1291
     18 C           7.0704   -1.0422    0.0000 C.3     1  UNL1        0.0703
     19 C           8.5000   -0.9350    0.0000 C.3     1  UNL1        0.0127
     20 C           8.5000    0.8001    0.0000 C.3     1  UNL1        0.0660
     21 C           7.1482    1.7713    0.0000 C.3     1  UNL1       -0.0140
     22 C           6.3504    2.1123    0.0000 C.3     1  UNL1        0.1294
     23 C           5.7796    1.4590    0.0000 C.3     1  UNL1        0.1410
     24 C           5.2032    0.2025    0.0000 C.3     1  UNL1        0.0171
     25 C           9.6954   -0.7808    0.0000 C.3     1  UNL1        0.0070
     26 C           9.2514   -0.5013    0.0000 C.3     1  UNL1       -0.0414
     27 C           5.2032    1.6870    0.0000 C.3     1  UNL1        0.0941
     28 C           9.2514    0.3663    0.0000 C.3     1  UNL1       -0.0254
     29 C           8.5000   -1.9350    0.0000 C.3     1  UNL1        0.0544
     30 C          10.4993    0.5658    0.0000 C.3     1  UNL1       -0.0124
     31 C           4.2010   -1.0769    0.0000 C.2     1  UNL1        0.3045
     32 C           7.2772   -2.7618    0.0000 C.3     1  UNL1        0.0368
     33 C           9.3661    2.3001    0.0000 C.3     1  UNL1        0.0368
     34 C           3.8763    1.1282    0.0000 C.2     1  UNL1        0.3395
     35 C           4.4665    3.2545    0.0000 C.3     1  UNL1        0.0369
     36 C           3.9676   -2.0493    0.0000 C.3     1  UNL1        0.0333
     37 C           9.3661   -3.4350    0.0000 C.3     1  UNL1        0.0365
     38 C           3.0585    1.7039    0.0000 C.ar    1  UNL1        0.0590
     39 C           2.1512    1.2835    0.0000 C.ar    1  UNL1       -0.0478
     40 C           3.1482    2.6998    0.0000 C.ar    1  UNL1       -0.0478
     41 C           1.3335    1.8591    0.0000 C.ar    1  UNL1       -0.0610
     42 C           2.3305    3.2755    0.0000 C.ar    1  UNL1       -0.0610
     43 C           1.4231    2.8551    0.0000 C.ar    1  UNL1       -0.0617
     44 H           7.8122   -1.3489    0.0000 H       1  UNL1        0.0339
     45 H           7.8520    1.2413    0.0000 H       1  UNL1        0.0314
     46 H           9.1952    0.9848    0.0000 H       1  UNL1        0.0474
     47 H           5.6946   -1.5137    0.0000 H       1  UNL1        0.0380
     48 H           5.3754    0.6761    0.0000 H       1  UNL1        0.0379
     49 H           7.2708   -1.6289    0.0000 H       1  UNL1        0.0603
     50 H           7.9631    1.1101    0.0000 H       1  UNL1        0.0602
     51 H           7.3309    2.3638    0.0000 H       1  UNL1        0.0298
     52 H           7.7565    1.6515    0.0000 H       1  UNL1        0.0298
     53 H           5.5488    2.0344    0.0000 H       1  UNL1        0.0768
     54 H           5.0413   -0.3960    0.0000 H       1  UNL1        0.0330
     55 H           4.5886    0.2841    0.0000 H       1  UNL1        0.0330
     56 H          10.3148   -0.7543    0.0000 H       1  UNL1        0.0433
     57 H           9.7483   -1.3985    0.0000 H       1  UNL1        0.0433
     58 H           9.8620   -0.3936    0.0000 H       1  UNL1        0.0273
     59 H           9.4634   -1.0839    0.0000 H       1  UNL1        0.0273
     60 H           5.2814    2.3020    0.0000 H       1  UNL1        0.0627
     61 H           9.4634    0.9489    0.0000 H       1  UNL1        0.0290
     62 H           9.8620    0.2587    0.0000 H       1  UNL1        0.0290
     63 H           8.2880   -2.5176    0.0000 H       1  UNL1        0.0566
     64 H           7.8895   -1.8274    0.0000 H       1  UNL1        0.0566
     65 H          10.1306    1.0642    0.0000 H       1  UNL1        0.0391
     66 H          10.9978    0.9345    0.0000 H       1  UNL1        0.0391
     67 H          10.8680    0.0673    0.0000 H       1  UNL1        0.0391
     68 H           5.8456    3.4350    0.0000 H       1  UNL1        0.2104
     69 H           7.7733   -2.3899    0.0000 H       1  UNL1        0.0524
     70 H           7.6491   -3.2579    0.0000 H       1  UNL1        0.0524
     71 H           6.7811   -3.1337    0.0000 H       1  UNL1        0.0524
     72 H           9.0561    2.8370    0.0000 H       1  UNL1        0.0524
     73 H           9.9030    2.6101    0.0000 H       1  UNL1        0.0524
     74 H           9.6761    1.7632    0.0000 H       1  UNL1        0.0524
     75 H           3.8487    3.3067    0.0000 H       1  UNL1        0.0524
     76 H           4.5187    3.8723    0.0000 H       1  UNL1        0.0524
     77 H           5.0843    3.2024    0.0000 H       1  UNL1        0.0524
     78 H           4.5705   -2.1940    0.0000 H       1  UNL1        0.0342
     79 H           3.8229   -2.6521    0.0000 H       1  UNL1        0.0342
     80 H           3.3647   -1.9046    0.0000 H       1  UNL1        0.0342
     81 H           9.9861   -3.4350    0.0000 H       1  UNL1        0.0523
     82 H           9.3661   -4.0550    0.0000 H       1  UNL1        0.0523
     83 H           8.7461   -3.4350    0.0000 H       1  UNL1        0.0523
     84 H           2.0956    0.6660    0.0000 H       1  UNL1        0.0626
     85 H           3.7107    2.9605    0.0000 H       1  UNL1        0.0626
     86 H           0.7709    1.5985    0.0000 H       1  UNL1        0.0618
     87 H           2.3860    3.8930    0.0000 H       1  UNL1        0.0618
     88 H           0.9161    3.2120    0.0000 H       1  UNL1        0.0618
@<TRIPOS>BOND
     1    17     1    1
     2     1    31    1
     3    18     2    1
     4     2    32    1
     5    20     3    1
     6     3    33    1
     7    23     4    1
     8     4    34    1
     9    22     5    1
    10     5    68    1
    11    27     6    1
    12     6    35    1
    13     7    29    1
    14     7    37    1
    15     8    31    2
    16     9    34    2
    17    10    14    1
    18    10    25    1
    19    10    30    1
    20    11    12    1
    21    11    13    1
    22    11    14    1
    23    11    20    1
    24    12    18    1
    25    12    19    1
    26    12    44    1
    27    13    16    1
    28    13    21    1
    29    13    45    1
    30    14    15    1
    31    14    46    1
    32    15    17    1
    33    15    18    1
    34    15    47    1
    35    16    17    1
    36    16    23    1
    37    16    48    1
    38    17    24    1
    39    18    49    1
    40    19    25    1
    41    19    26    1
    42    19    29    1
    43    20    28    1
    44    20    50    1
    45    21    22    1
    46    21    51    1
    47    21    52    1
    48    22    23    1
    49    22    27    1
    50    23    53    1
    51    24    27    1
    52    24    54    1
    53    24    55    1
    54    25    56    1
    55    25    57    1
    56    26    28    1
    57    26    58    1
    58    26    59    1
    59    27    60    1
    60    28    61    1
    61    28    62    1
    62    29    63    1
    63    29    64    1
    64    30    65    1
    65    30    66    1
    66    30    67    1
    67    31    36    1
    68    32    69    1
    69    32    70    1
    70    32    71    1
    71    33    72    1
    72    33    73    1
    73    33    74    1
    74    34    38    1
    75    35    75    1
    76    35    76    1
    77    35    77    1
    78    36    78    1
    79    36    79    1
    80    36    80    1
    81    37    81    1
    82    37    82    1
    83    37    83    1
    84    38    39   ar
    85    38    40   ar
    86    39    41   ar
    87    39    84    1
    88    40    42   ar
    89    40    85    1
    90    41    43   ar
    91    41    86    1
    92    42    43   ar
    93    42    87    1
    94    43    88    1
