@<TRIPOS>MOLECULE
IMPHY015605
 31 31 0 0 0
SMALL
GASTEIGER

@<TRIPOS>ATOM
      1 C           3.0000   -1.0000    0.0000 C.3     1  UNL1       -0.0062
      2 C           3.0000   -2.0000    0.0000 C.3     1  UNL1       -0.0253
      3 C           3.8660   -0.5000    0.0000 C.2     1  UNL1       -0.0385
      4 C           2.0000   -1.0000    0.0000 C.3     1  UNL1       -0.0555
      5 C           2.5000   -0.1340    0.0000 C.3     1  UNL1       -0.0555
      6 C           4.7320   -1.0000    0.0000 C.2     1  UNL1       -0.0470
      7 C           3.8660   -2.5000    0.0000 C.2     1  UNL1       -0.0829
      8 C           4.7320   -2.0000    0.0000 C.2     1  UNL1       -0.0625
      9 C           3.8660    0.5000    0.0000 C.2     1  UNL1       -0.0578
     10 C           5.5981   -0.5000    0.0000 C.3     1  UNL1       -0.0394
     11 C           4.7320    1.0000    0.0000 C.2     1  UNL1       -0.0620
     12 C           4.7320    2.0000    0.0000 C.2     1  UNL1       -0.0689
     13 C           5.5981    2.5000    0.0000 C.2     1  UNL1       -0.0987
     14 H           2.3894   -1.8923    0.0000 H       1  UNL1        0.0316
     15 H           2.7880   -2.5826    0.0000 H       1  UNL1        0.0316
     16 H           2.0000   -0.3800    0.0000 H       1  UNL1        0.0238
     17 H           1.3800   -1.0000    0.0000 H       1  UNL1        0.0238
     18 H           2.0000   -1.6200    0.0000 H       1  UNL1        0.0238
     19 H           3.0369    0.1760    0.0000 H       1  UNL1        0.0238
     20 H           2.1900    0.4030    0.0000 H       1  UNL1        0.0238
     21 H           1.9631   -0.4440    0.0000 H       1  UNL1        0.0238
     22 H           3.8660   -3.1200    0.0000 H       1  UNL1        0.0572
     23 H           5.2690   -2.3100    0.0000 H       1  UNL1        0.0617
     24 H           3.3291    0.8100    0.0000 H       1  UNL1        0.0621
     25 H           5.9081   -1.0369    0.0000 H       1  UNL1        0.0278
     26 H           6.1350   -0.1900    0.0000 H       1  UNL1        0.0278
     27 H           5.2881    0.0369    0.0000 H       1  UNL1        0.0278
     28 H           5.2690    0.6900    0.0000 H       1  UNL1        0.0617
     29 H           4.1951    2.3100    0.0000 H       1  UNL1        0.0612
     30 H           6.1350    2.1900    0.0000 H       1  UNL1        0.0535
     31 H           5.5981    3.1200    0.0000 H       1  UNL1        0.0535
@<TRIPOS>BOND
     1     1     2    1
     2     1     3    1
     3     1     4    1
     4     1     5    1
     5     2     7    1
     6     2    14    1
     7     2    15    1
     8     3     6    2
     9     3     9    1
    10     4    16    1
    11     4    17    1
    12     4    18    1
    13     5    19    1
    14     5    20    1
    15     5    21    1
    16     6     8    1
    17     6    10    1
    18     7     8    2
    19     7    22    1
    20     8    23    1
    21     9    11    2
    22     9    24    1
    23    10    25    1
    24    10    26    1
    25    10    27    1
    26    11    12    1
    27    11    28    1
    28    12    13    2
    29    12    29    1
    30    13    30    1
    31    13    31    1
