@<TRIPOS>MOLECULE
IMPHY005407
 86 90 0 0 0
SMALL
GASTEIGER

@<TRIPOS>ATOM
      1 O           3.7320   -2.5933    0.0000 O.3     1  UNL1       -0.4610
      2 O          12.6571    0.4932    0.0000 O.3     1  UNL1       -0.4802
      3 O          11.8027   -1.0134    0.0000 O.2     1  UNL1       -0.2504
      4 O           2.8718   -1.0900    0.0000 O.2     1  UNL1       -0.2512
      5 C           7.3931   -0.5410    0.0000 C.3     1  UNL1       -0.0262
      6 C           6.4831   -1.0478    0.0000 C.3     1  UNL1       -0.0249
      7 C           8.2591   -1.0410    0.0000 C.3     1  UNL1       -0.0072
      8 C           6.4750   -2.0894    0.0000 C.3     1  UNL1       -0.0268
      9 C           9.1251    0.4590    0.0000 C.3     1  UNL1       -0.0067
     10 C           9.1251   -0.5410    0.0000 C.2     1  UNL1       -0.0611
     11 C          10.0191    0.9937    0.0000 C.3     1  UNL1       -0.0154
     12 C           7.3931    0.4590    0.0000 C.3     1  UNL1       -0.0481
     13 C           8.2752   -2.0825    0.0000 C.3     1  UNL1       -0.0433
     14 C           5.5396   -2.6391    0.0000 C.3     1  UNL1        0.0055
     15 C           8.2591    0.9590    0.0000 C.3     1  UNL1       -0.0433
     16 C           7.3771   -2.6102    0.0000 C.3     1  UNL1       -0.0483
     17 C          10.9251    0.4799    0.0000 C.3     1  UNL1        0.0746
     18 C           5.5562   -0.4837    0.0000 C.3     1  UNL1       -0.0437
     19 C           4.6000   -2.0966    0.0000 C.3     1  UNL1        0.1084
     20 C           9.9940    2.0784    0.0000 C.3     1  UNL1       -0.0432
     21 C           6.4908   -0.0478    0.0000 C.3     1  UNL1       -0.0590
     22 C           9.1251   -1.5410    0.0000 C.3     1  UNL1       -0.0556
     23 C           4.6084   -1.0117    0.0000 C.3     1  UNL1       -0.0146
     24 C          10.9251   -0.5618    0.0000 C.3     1  UNL1       -0.0184
     25 C          10.0191   -1.0756    0.0000 C.2     1  UNL1       -0.0827
     26 C           9.1251    1.4590    0.0000 C.3     1  UNL1       -0.0555
     27 C          10.9251    2.6353    0.0000 C.3     1  UNL1       -0.0345
     28 C          11.8689    1.0151    0.0000 C.3     1  UNL1       -0.0362
     29 C          11.8689    2.1001    0.0000 C.3     1  UNL1       -0.0468
     30 C           5.0430   -3.5071    0.0000 C.3     1  UNL1       -0.0562
     31 C           6.0430   -3.5032    0.0000 C.3     1  UNL1       -0.0562
     32 C          11.7950   -0.0135    0.0000 C.2     1  UNL1        0.3115
     33 C          11.4151    3.5071    0.0000 C.3     1  UNL1       -0.0598
     34 C          10.4152    3.4955    0.0000 C.3     1  UNL1       -0.0598
     35 C           2.8680   -2.0900    0.0000 C.2     1  UNL1        0.3042
     36 C           2.0000   -2.5866    0.0000 C.3     1  UNL1        0.0332
     37 H           8.1292   -0.1160    0.0000 H       1  UNL1        0.0314
     38 H           6.4783   -2.9394    0.0000 H       1  UNL1        0.0312
     39 H          10.7485    1.4300    0.0000 H       1  UNL1        0.0320
     40 H           7.1810    1.0416    0.0000 H       1  UNL1        0.0269
     41 H           6.7825    0.3514    0.0000 H       1  UNL1        0.0269
     42 H           8.4932   -2.6629    0.0000 H       1  UNL1        0.0274
     43 H           8.8843   -1.9670    0.0000 H       1  UNL1        0.0274
     44 H           8.6576    1.4340    0.0000 H       1  UNL1        0.0274
     45 H           7.8606    1.4340    0.0000 H       1  UNL1        0.0274
     46 H           6.9798   -3.0862    0.0000 H       1  UNL1        0.0269
     47 H           7.7781   -3.0831    0.0000 H       1  UNL1        0.0269
     48 H           5.9644   -0.0171    0.0000 H       1  UNL1        0.0272
     49 H           5.1663   -0.0017    0.0000 H       1  UNL1        0.0272
     50 H           4.5988   -2.7166    0.0000 H       1  UNL1        0.0739
     51 H           9.7715    2.6571    0.0000 H       1  UNL1        0.0274
     52 H           9.3857    1.9582    0.0000 H       1  UNL1        0.0274
     53 H           7.1108   -0.0526    0.0000 H       1  UNL1        0.0235
     54 H           6.4956    0.5721    0.0000 H       1  UNL1        0.0235
     55 H           5.8708   -0.0431    0.0000 H       1  UNL1        0.0235
     56 H           8.8151   -2.0779    0.0000 H       1  UNL1        0.0238
     57 H           9.6621   -1.8510    0.0000 H       1  UNL1        0.0238
     58 H           9.4351   -1.0040    0.0000 H       1  UNL1        0.0238
     59 H           4.4038   -0.4264    0.0000 H       1  UNL1        0.0301
     60 H           3.9967   -1.1131    0.0000 H       1  UNL1        0.0301
     61 H          11.1342   -1.1455    0.0000 H       1  UNL1        0.0318
     62 H          11.5360   -0.4557    0.0000 H       1  UNL1        0.0318
     63 H          10.0119   -1.6956    0.0000 H       1  UNL1        0.0572
     64 H           9.7451    1.4590    0.0000 H       1  UNL1        0.0238
     65 H           9.1251    2.0790    0.0000 H       1  UNL1        0.0238
     66 H           8.5051    1.4590    0.0000 H       1  UNL1        0.0238
     67 H          12.0780    0.4314    0.0000 H       1  UNL1        0.0276
     68 H          12.4798    1.1212    0.0000 H       1  UNL1        0.0276
     69 H          12.4798    1.9940    0.0000 H       1  UNL1        0.0271
     70 H          12.0780    2.6838    0.0000 H       1  UNL1        0.0271
     71 H           4.5048   -3.1992    0.0000 H       1  UNL1        0.0236
     72 H           4.7350   -4.0452    0.0000 H       1  UNL1        0.0236
     73 H           5.5811   -3.8150    0.0000 H       1  UNL1        0.0236
     74 H           5.5072   -3.8153    0.0000 H       1  UNL1        0.0236
     75 H           6.3550   -4.0390    0.0000 H       1  UNL1        0.0236
     76 H           6.5787   -3.1912    0.0000 H       1  UNL1        0.0236
     77 H          11.9556    3.2033    0.0000 H       1  UNL1        0.0235
     78 H          11.7189    4.0476    0.0000 H       1  UNL1        0.0235
     79 H          10.8746    3.8108    0.0000 H       1  UNL1        0.0235
     80 H          10.9485    3.8117    0.0000 H       1  UNL1        0.0235
     81 H          10.0990    4.0288    0.0000 H       1  UNL1        0.0235
     82 H           9.8818    3.1793    0.0000 H       1  UNL1        0.0235
     83 H          13.1964    0.1874    0.0000 H       1  UNL1        0.2951
     84 H           1.6921   -2.0485    0.0000 H       1  UNL1        0.0342
     85 H           1.4619   -2.8945    0.0000 H       1  UNL1        0.0342
     86 H           2.3079   -3.1247    0.0000 H       1  UNL1        0.0342
@<TRIPOS>BOND
     1    19     1    1
     2     1    35    1
     3     2    32    1
     4     2    83    1
     5     3    32    2
     6     4    35    2
     7     5     6    1
     8     5     7    1
     9     5    12    1
    10     5    37    1
    11     6     8    1
    12     6    18    1
    13     6    21    1
    14     7    10    1
    15     7    13    1
    16     7    22    1
    17     8    14    1
    18     8    16    1
    19     8    38    1
    20     9    10    1
    21     9    11    1
    22     9    15    1
    23     9    26    1
    24    10    25    2
    25    11    17    1
    26    11    20    1
    27    11    39    1
    28    12    15    1
    29    12    40    1
    30    12    41    1
    31    13    16    1
    32    13    42    1
    33    13    43    1
    34    14    19    1
    35    14    30    1
    36    14    31    1
    37    15    44    1
    38    15    45    1
    39    16    46    1
    40    16    47    1
    41    17    24    1
    42    17    28    1
    43    17    32    1
    44    18    23    1
    45    18    48    1
    46    18    49    1
    47    19    23    1
    48    19    50    1
    49    20    27    1
    50    20    51    1
    51    20    52    1
    52    21    53    1
    53    21    54    1
    54    21    55    1
    55    22    56    1
    56    22    57    1
    57    22    58    1
    58    23    59    1
    59    23    60    1
    60    24    25    1
    61    24    61    1
    62    24    62    1
    63    25    63    1
    64    26    64    1
    65    26    65    1
    66    26    66    1
    67    27    29    1
    68    27    33    1
    69    27    34    1
    70    28    29    1
    71    28    67    1
    72    28    68    1
    73    29    69    1
    74    29    70    1
    75    30    71    1
    76    30    72    1
    77    30    73    1
    78    31    74    1
    79    31    75    1
    80    31    76    1
    81    33    77    1
    82    33    78    1
    83    33    79    1
    84    34    80    1
    85    34    81    1
    86    34    82    1
    87    35    36    1
    88    36    84    1
    89    36    85    1
    90    36    86    1
