@<TRIPOS>MOLECULE
IMPHY008176
 43 46 0 0 0
SMALL
GASTEIGER

@<TRIPOS>ATOM
      1 N           5.5321    1.8108    0.0000 N.pl3   1  UNL1       -0.2195
      2 N           4.6660    0.3108    0.0000 N.2     1  UNL1       -0.0456
      3 N           8.4353    0.0936    0.0000 N.pl3   1  UNL1       -0.3358
      4 C           6.4783    0.5061    0.0000 C.3     1  UNL1        0.0924
      5 C           7.0619    1.3108    0.0000 C.3     1  UNL1        0.0012
      6 C           6.4783    2.1156    0.0000 C.3     1  UNL1        0.0817
      7 C           5.5321    0.8108    0.0000 C.2     1  UNL1        0.2973
      8 C           4.6660    2.3108    0.0000 C.3     1  UNL1        0.1096
      9 C           6.7889   -0.4444    0.0000 C.ar    1  UNL1       -0.0116
     10 C           3.8000    1.8108    0.0000 C.ar    1  UNL1        0.0425
     11 C           3.8000    0.8108    0.0000 C.ar    1  UNL1        0.1828
     12 C           7.7674   -0.6507    0.0000 C.ar    1  UNL1        0.0332
     13 C           6.1211   -1.1887    0.0000 C.ar    1  UNL1       -0.0560
     14 C           2.9061    2.3455    0.0000 C.ar    1  UNL1       -0.0509
     15 C           8.0781   -1.6012    0.0000 C.ar    1  UNL1       -0.0404
     16 C           2.9061    0.2762    0.0000 C.ar    1  UNL1       -0.0105
     17 C           6.4318   -2.1393    0.0000 C.ar    1  UNL1       -0.0614
     18 C           7.4103   -2.3455    0.0000 C.ar    1  UNL1       -0.0600
     19 C           2.0000    1.8316    0.0000 C.ar    1  UNL1       -0.0611
     20 C           2.0000    0.7900    0.0000 C.ar    1  UNL1       -0.0576
     21 C           9.4138   -0.1126    0.0000 C.3     1  UNL1        0.0004
     22 C           8.1246    1.0442    0.0000 C.3     1  UNL1        0.0004
     23 H           7.0908    0.4099    0.0000 H       1  UNL1        0.0474
     24 H           7.5228    0.8961    0.0000 H       1  UNL1        0.0313
     25 H           7.5228    1.7255    0.0000 H       1  UNL1        0.0313
     26 H           7.0157    2.4248    0.0000 H       1  UNL1        0.0726
     27 H           6.2272    2.6824    0.0000 H       1  UNL1        0.0726
     28 H           5.0646    2.7858    0.0000 H       1  UNL1        0.0779
     29 H           4.2675    2.7858    0.0000 H       1  UNL1        0.0779
     30 H           5.5144   -1.0609    0.0000 H       1  UNL1        0.0621
     31 H           2.9132    2.9654    0.0000 H       1  UNL1        0.0623
     32 H           8.6848   -1.7290    0.0000 H       1  UNL1        0.0636
     33 H           2.9132   -0.3438    0.0000 H       1  UNL1        0.0661
     34 H           6.0177   -2.6007    0.0000 H       1  UNL1        0.0618
     35 H           7.6029   -2.9348    0.0000 H       1  UNL1        0.0618
     36 H           1.4643    2.1437    0.0000 H       1  UNL1        0.0618
     37 H           1.4643    0.4779    0.0000 H       1  UNL1        0.0619
     38 H           9.2859   -0.7192    0.0000 H       1  UNL1        0.0428
     39 H          10.0205   -0.2404    0.0000 H       1  UNL1        0.0428
     40 H           9.5416    0.4941    0.0000 H       1  UNL1        0.0428
     41 H           8.7140    1.2368    0.0000 H       1  UNL1        0.0428
     42 H           7.9320    1.6335    0.0000 H       1  UNL1        0.0428
     43 H           7.5353    0.8516    0.0000 H       1  UNL1        0.0428
@<TRIPOS>BOND
     1     1     6    1
     2     1     7    1
     3     1     8    1
     4     2     7    2
     5     2    11    1
     6     3    12    1
     7     3    21    1
     8     3    22    1
     9     4     5    1
    10     4     7    1
    11     4     9    1
    12     4    23    1
    13     5     6    1
    14     5    24    1
    15     5    25    1
    16     6    26    1
    17     6    27    1
    18     8    10    1
    19     8    28    1
    20     8    29    1
    21     9    12   ar
    22     9    13   ar
    23    10    11   ar
    24    10    14   ar
    25    11    16   ar
    26    12    15   ar
    27    13    17   ar
    28    13    30    1
    29    14    19   ar
    30    14    31    1
    31    15    18   ar
    32    15    32    1
    33    16    20   ar
    34    16    33    1
    35    17    18   ar
    36    17    34    1
    37    18    35    1
    38    19    20   ar
    39    19    36    1
    40    20    37    1
    41    21    38    1
    42    21    39    1
    43    21    40    1
    44    22    41    1
    45    22    42    1
    46    22    43    1
