@<TRIPOS>MOLECULE
IMPHY012296
 42 45 0 0 0
SMALL
GASTEIGER

@<TRIPOS>ATOM
      1 O           6.3979   -1.5828    0.0000 O.2     1  UNL1       -0.2752
      2 N           3.0238   -0.0960    0.0000 N.3     1  UNL1       -0.2983
      3 N           7.1227    0.0452    0.0000 N.am    1  UNL1       -0.2979
      4 C           5.3327    1.1764    0.0000 C.3     1  UNL1       -0.0089
      5 C           5.0739    0.2105    0.0000 C.3     1  UNL1        0.0516
      6 C           3.8528   -0.6551    0.0000 C.3     1  UNL1        0.0215
      7 C           6.7643    0.9788    0.0000 C.3     1  UNL1        0.0300
      8 C           4.5961    2.1591    0.0000 C.3     1  UNL1       -0.0348
      9 C           3.2994    0.8653    0.0000 C.3     1  UNL1        0.0037
     10 C           6.3456   -0.5841    0.0000 C.2     1  UNL1        0.2204
     11 C           3.7962   -1.6952    0.0000 C.3     1  UNL1       -0.0366
     12 C           7.4073    1.7983    0.0000 C.3     1  UNL1       -0.0339
     13 C           2.0807   -0.5381    0.0000 C.3     1  UNL1       -0.0008
     14 C           8.1489   -0.1336    0.0000 C.3     1  UNL1        0.0150
     15 C           2.8636   -2.1591    0.0000 C.3     1  UNL1       -0.0505
     16 C           8.4373    1.6433    0.0000 C.3     1  UNL1       -0.0499
     17 C           2.0000   -1.5766    0.0000 C.3     1  UNL1       -0.0401
     18 C           8.8106    0.6708    0.0000 C.3     1  UNL1       -0.0371
     19 H           5.3372    0.5565    0.0000 H       1  UNL1        0.0331
     20 H           5.5762    0.5740    0.0000 H       1  UNL1        0.0410
     21 H           4.3957   -0.9547    0.0000 H       1  UNL1        0.0470
     22 H           7.3774    0.8865    0.0000 H       1  UNL1        0.0503
     23 H           4.9139    2.6914    0.0000 H       1  UNL1        0.0277
     24 H           3.9829    2.2510    0.0000 H       1  UNL1        0.0277
     25 H           3.2944    1.4853    0.0000 H       1  UNL1        0.0430
     26 H           2.6851    0.9491    0.0000 H       1  UNL1        0.0430
     27 H           3.9732   -2.2894    0.0000 H       1  UNL1        0.0281
     28 H           4.4119   -1.6225    0.0000 H       1  UNL1        0.0281
     29 H           7.6031    2.3866    0.0000 H       1  UNL1        0.0283
     30 H           6.8612    2.0919    0.0000 H       1  UNL1        0.0283
     31 H           1.9174    0.0600    0.0000 H       1  UNL1        0.0427
     32 H           1.4634   -0.5966    0.0000 H       1  UNL1        0.0427
     33 H           7.9395   -0.7172    0.0000 H       1  UNL1        0.0465
     34 H           8.6880   -0.4397    0.0000 H       1  UNL1        0.0465
     35 H           2.4340   -2.6062    0.0000 H       1  UNL1        0.0266
     36 H           3.2306   -2.6588    0.0000 H       1  UNL1        0.0266
     37 H           9.0456    1.7631    0.0000 H       1  UNL1        0.0266
     38 H           8.4233    2.2631    0.0000 H       1  UNL1        0.0266
     39 H           1.3992   -1.4235    0.0000 H       1  UNL1        0.0278
     40 H           1.7464   -2.1423    0.0000 H       1  UNL1        0.0278
     41 H           9.2150    0.2008    0.0000 H       1  UNL1        0.0280
     42 H           9.3429    0.9888    0.0000 H       1  UNL1        0.0280
@<TRIPOS>BOND
     1     1    10    2
     2     2     6    1
     3     2     9    1
     4     2    13    1
     5     3     7    1
     6     3    10   am
     7     3    14    1
     8     4     7    1
     9     4     8    1
    10     4     9    1
    11     4    19    1
    12     5     6    1
    13     5     8    1
    14     5    10    1
    15     5    20    1
    16     6    11    1
    17     6    21    1
    18     7    12    1
    19     7    22    1
    20     8    23    1
    21     8    24    1
    22     9    25    1
    23     9    26    1
    24    11    15    1
    25    11    27    1
    26    11    28    1
    27    12    16    1
    28    12    29    1
    29    12    30    1
    30    13    17    1
    31    13    31    1
    32    13    32    1
    33    14    18    1
    34    14    33    1
    35    14    34    1
    36    15    17    1
    37    15    35    1
    38    15    36    1
    39    16    18    1
    40    16    37    1
    41    16    38    1
    42    17    39    1
    43    17    40    1
    44    18    41    1
    45    18    42    1
