@<TRIPOS>MOLECULE
IMPHY015603
 45 45 0 0 0
SMALL
GASTEIGER

@<TRIPOS>ATOM
      1 C           2.8090   -2.9806    0.0000 C.3     1  UNL1       -0.0410
      2 C           2.0000   -3.5684    0.0000 C.3     1  UNL1       -0.0502
      3 C           3.6180   -3.5684    0.0000 C.3     1  UNL1       -0.0502
      4 C           2.3090   -4.5194    0.0000 C.3     1  UNL1       -0.0528
      5 C           3.3090   -4.5194    0.0000 C.3     1  UNL1       -0.0528
      6 C           2.8090   -1.9806    0.0000 C.3     1  UNL1       -0.0502
      7 C           3.6750   -1.4806    0.0000 C.3     1  UNL1       -0.0528
      8 C           3.6750   -0.4806    0.0000 C.3     1  UNL1       -0.0530
      9 C           4.5411    0.0194    0.0000 C.3     1  UNL1       -0.0531
     10 C           4.5411    1.0194    0.0000 C.3     1  UNL1       -0.0531
     11 C           5.4071    1.5194    0.0000 C.3     1  UNL1       -0.0531
     12 C           5.4071    2.5194    0.0000 C.3     1  UNL1       -0.0531
     13 C           6.2731    3.0194    0.0000 C.3     1  UNL1       -0.0533
     14 C           6.2731    4.0194    0.0000 C.3     1  UNL1       -0.0559
     15 C           7.1391    4.5194    0.0000 C.3     1  UNL1       -0.0653
     16 H           3.3614   -2.6991    0.0000 H       1  UNL1        0.0301
     17 H           1.6900   -3.0314    0.0000 H       1  UNL1        0.0268
     18 H           1.4336   -3.8205    0.0000 H       1  UNL1        0.0268
     19 H           4.1844   -3.8205    0.0000 H       1  UNL1        0.0268
     20 H           3.9280   -3.0314    0.0000 H       1  UNL1        0.0268
     21 H           1.7026   -4.6483    0.0000 H       1  UNL1        0.0265
     22 H           2.3738   -5.1360    0.0000 H       1  UNL1        0.0265
     23 H           3.2442   -5.1360    0.0000 H       1  UNL1        0.0265
     24 H           3.9155   -4.6483    0.0000 H       1  UNL1        0.0265
     25 H           2.5970   -1.3980    0.0000 H       1  UNL1        0.0268
     26 H           2.1984   -2.0882    0.0000 H       1  UNL1        0.0268
     27 H           3.8871   -2.0632    0.0000 H       1  UNL1        0.0265
     28 H           4.2856   -1.3729    0.0000 H       1  UNL1        0.0265
     29 H           3.4630    0.1020    0.0000 H       1  UNL1        0.0265
     30 H           3.0645   -0.5882    0.0000 H       1  UNL1        0.0265
     31 H           4.7531   -0.5632    0.0000 H       1  UNL1        0.0265
     32 H           5.1516    0.1271    0.0000 H       1  UNL1        0.0265
     33 H           4.3290    1.6020    0.0000 H       1  UNL1        0.0265
     34 H           3.9305    0.9118    0.0000 H       1  UNL1        0.0265
     35 H           5.6192    0.9368    0.0000 H       1  UNL1        0.0265
     36 H           6.0177    1.6271    0.0000 H       1  UNL1        0.0265
     37 H           5.1950    3.1020    0.0000 H       1  UNL1        0.0265
     38 H           4.7965    2.4118    0.0000 H       1  UNL1        0.0265
     39 H           6.4852    2.4368    0.0000 H       1  UNL1        0.0265
     40 H           6.8837    3.1271    0.0000 H       1  UNL1        0.0265
     41 H           6.0611    4.6020    0.0000 H       1  UNL1        0.0263
     42 H           5.6625    3.9118    0.0000 H       1  UNL1        0.0263
     43 H           7.4491    3.9825    0.0000 H       1  UNL1        0.0230
     44 H           7.6761    4.8294    0.0000 H       1  UNL1        0.0230
     45 H           6.8291    5.0564    0.0000 H       1  UNL1        0.0230
@<TRIPOS>BOND
     1     1     2    1
     2     1     3    1
     3     1     6    1
     4     1    16    1
     5     2     4    1
     6     2    17    1
     7     2    18    1
     8     3     5    1
     9     3    19    1
    10     3    20    1
    11     4     5    1
    12     4    21    1
    13     4    22    1
    14     5    23    1
    15     5    24    1
    16     6     7    1
    17     6    25    1
    18     6    26    1
    19     7     8    1
    20     7    27    1
    21     7    28    1
    22     8     9    1
    23     8    29    1
    24     8    30    1
    25     9    10    1
    26     9    31    1
    27     9    32    1
    28    10    11    1
    29    10    33    1
    30    10    34    1
    31    11    12    1
    32    11    35    1
    33    11    36    1
    34    12    13    1
    35    12    37    1
    36    12    38    1
    37    13    14    1
    38    13    39    1
    39    13    40    1
    40    14    15    1
    41    14    41    1
    42    14    42    1
    43    15    43    1
    44    15    44    1
    45    15    45    1
