@<TRIPOS>MOLECULE
IMPHY014467
 86 86 0 0 0
SMALL
GASTEIGER

@<TRIPOS>ATOM
      1 O           5.4641   -5.3450    0.0000 O.2     1  UNL1       -0.2758
      2 O           2.8660  -10.8450    0.0000 O.3     1  UNL1       -0.5068
      3 N           3.7320   -5.3450    0.0000 N.am    1  UNL1       -0.3150
      4 C           8.9282    2.6550    0.0000 C.3     1  UNL1       -0.0531
      5 C           8.9282    3.6550    0.0000 C.3     1  UNL1       -0.0531
      6 C           8.0622    2.1550    0.0000 C.3     1  UNL1       -0.0531
      7 C           9.7942    4.1550    0.0000 C.3     1  UNL1       -0.0531
      8 C           8.0622    1.1550    0.0000 C.3     1  UNL1       -0.0531
      9 C           9.7942    5.1550    0.0000 C.3     1  UNL1       -0.0531
     10 C           7.1962    0.6550    0.0000 C.3     1  UNL1       -0.0531
     11 C          10.6603    5.6550    0.0000 C.3     1  UNL1       -0.0531
     12 C           7.1962   -0.3450    0.0000 C.3     1  UNL1       -0.0531
     13 C          10.6603    6.6550    0.0000 C.3     1  UNL1       -0.0531
     14 C           6.3301   -0.8450    0.0000 C.3     1  UNL1       -0.0531
     15 C          11.5263    7.1550    0.0000 C.3     1  UNL1       -0.0531
     16 C           6.3301   -1.8450    0.0000 C.3     1  UNL1       -0.0530
     17 C          11.5263    8.1550    0.0000 C.3     1  UNL1       -0.0531
     18 C           5.4641   -2.3450    0.0000 C.3     1  UNL1       -0.0526
     19 C          12.3923    8.6550    0.0000 C.3     1  UNL1       -0.0531
     20 C           5.4641   -3.3450    0.0000 C.3     1  UNL1       -0.0448
     21 C          12.3923    9.6550    0.0000 C.3     1  UNL1       -0.0533
     22 C           4.5981   -3.8450    0.0000 C.3     1  UNL1        0.0240
     23 C          13.2583   10.1550    0.0000 C.3     1  UNL1       -0.0559
     24 C           4.5981   -4.8450    0.0000 C.2     1  UNL1        0.2130
     25 C          13.2583   11.1550    0.0000 C.3     1  UNL1       -0.0653
     26 C           3.7320   -6.3450    0.0000 C.3     1  UNL1        0.0156
     27 C           2.8660   -6.8450    0.0000 C.3     1  UNL1       -0.0121
     28 C           2.8660   -7.8450    0.0000 C.ar    1  UNL1       -0.0457
     29 C           3.7320   -8.3450    0.0000 C.ar    1  UNL1       -0.0551
     30 C           2.0000   -8.3450    0.0000 C.ar    1  UNL1       -0.0551
     31 C           3.7320   -9.3450    0.0000 C.ar    1  UNL1       -0.0199
     32 C           2.0000   -9.3450    0.0000 C.ar    1  UNL1       -0.0199
     33 C           2.8660   -9.8450    0.0000 C.ar    1  UNL1        0.1169
     34 H           9.1403    2.0724    0.0000 H       1  UNL1        0.0265
     35 H           9.5388    2.7627    0.0000 H       1  UNL1        0.0265
     36 H           8.7162    4.2376    0.0000 H       1  UNL1        0.0265
     37 H           8.3176    3.5473    0.0000 H       1  UNL1        0.0265
     38 H           7.8501    2.7376    0.0000 H       1  UNL1        0.0265
     39 H           7.4516    2.0473    0.0000 H       1  UNL1        0.0265
     40 H          10.0063    3.5724    0.0000 H       1  UNL1        0.0265
     41 H          10.4048    4.2627    0.0000 H       1  UNL1        0.0265
     42 H           8.2742    0.5724    0.0000 H       1  UNL1        0.0265
     43 H           8.6728    1.2627    0.0000 H       1  UNL1        0.0265
     44 H           9.5822    5.7376    0.0000 H       1  UNL1        0.0265
     45 H           9.1836    5.0473    0.0000 H       1  UNL1        0.0265
     46 H           6.9841    1.2376    0.0000 H       1  UNL1        0.0265
     47 H           6.5856    0.5473    0.0000 H       1  UNL1        0.0265
     48 H          10.8723    5.0724    0.0000 H       1  UNL1        0.0265
     49 H          11.2708    5.7627    0.0000 H       1  UNL1        0.0265
     50 H           7.4082   -0.9276    0.0000 H       1  UNL1        0.0265
     51 H           7.8067   -0.2373    0.0000 H       1  UNL1        0.0265
     52 H          10.4482    7.2376    0.0000 H       1  UNL1        0.0265
     53 H          10.0497    6.5473    0.0000 H       1  UNL1        0.0265
     54 H           6.1181   -0.2624    0.0000 H       1  UNL1        0.0265
     55 H           5.7196   -0.9527    0.0000 H       1  UNL1        0.0265
     56 H          11.7383    6.5724    0.0000 H       1  UNL1        0.0265
     57 H          12.1369    7.2627    0.0000 H       1  UNL1        0.0265
     58 H           6.5422   -2.4276    0.0000 H       1  UNL1        0.0265
     59 H           6.9407   -1.7373    0.0000 H       1  UNL1        0.0265
     60 H          11.3142    8.7376    0.0000 H       1  UNL1        0.0265
     61 H          10.9157    8.0473    0.0000 H       1  UNL1        0.0265
     62 H           5.2520   -1.7624    0.0000 H       1  UNL1        0.0265
     63 H           4.8535   -2.4527    0.0000 H       1  UNL1        0.0265
     64 H          12.6044    8.0724    0.0000 H       1  UNL1        0.0265
     65 H          13.0029    8.7627    0.0000 H       1  UNL1        0.0265
     66 H           5.6762   -3.9276    0.0000 H       1  UNL1        0.0270
     67 H           6.0747   -3.2373    0.0000 H       1  UNL1        0.0270
     68 H          12.1803   10.2376    0.0000 H       1  UNL1        0.0265
     69 H          11.7817    9.5473    0.0000 H       1  UNL1        0.0265
     70 H           4.3860   -3.2624    0.0000 H       1  UNL1        0.0358
     71 H           3.9875   -3.9527    0.0000 H       1  UNL1        0.0358
     72 H          13.4704    9.5724    0.0000 H       1  UNL1        0.0263
     73 H          13.8689   10.2627    0.0000 H       1  UNL1        0.0263
     74 H          13.8783   11.1550    0.0000 H       1  UNL1        0.0230
     75 H          13.2583   11.7750    0.0000 H       1  UNL1        0.0230
     76 H          12.6383   11.1550    0.0000 H       1  UNL1        0.0230
     77 H           3.1951   -5.0350    0.0000 H       1  UNL1        0.1487
     78 H           3.9441   -6.9276    0.0000 H       1  UNL1        0.0465
     79 H           4.3426   -6.2373    0.0000 H       1  UNL1        0.0465
     80 H           2.6540   -6.2624    0.0000 H       1  UNL1        0.0328
     81 H           2.2554   -6.9527    0.0000 H       1  UNL1        0.0328
     82 H           4.2690   -8.0350    0.0000 H       1  UNL1        0.0621
     83 H           1.4631   -8.0350    0.0000 H       1  UNL1        0.0621
     84 H           4.2690   -9.6550    0.0000 H       1  UNL1        0.0654
     85 H           1.4631   -9.6550    0.0000 H       1  UNL1        0.0654
     86 H           2.3291  -11.1550    0.0000 H       1  UNL1        0.2921
@<TRIPOS>BOND
     1     1    24    2
     2     2    33    1
     3     2    86    1
     4     3    24   am
     5     3    26    1
     6     3    77    1
     7     4     5    1
     8     4     6    1
     9     4    34    1
    10     4    35    1
    11     5     7    1
    12     5    36    1
    13     5    37    1
    14     6     8    1
    15     6    38    1
    16     6    39    1
    17     7     9    1
    18     7    40    1
    19     7    41    1
    20     8    10    1
    21     8    42    1
    22     8    43    1
    23     9    11    1
    24     9    44    1
    25     9    45    1
    26    10    12    1
    27    10    46    1
    28    10    47    1
    29    11    13    1
    30    11    48    1
    31    11    49    1
    32    12    14    1
    33    12    50    1
    34    12    51    1
    35    13    15    1
    36    13    52    1
    37    13    53    1
    38    14    16    1
    39    14    54    1
    40    14    55    1
    41    15    17    1
    42    15    56    1
    43    15    57    1
    44    16    18    1
    45    16    58    1
    46    16    59    1
    47    17    19    1
    48    17    60    1
    49    17    61    1
    50    18    20    1
    51    18    62    1
    52    18    63    1
    53    19    21    1
    54    19    64    1
    55    19    65    1
    56    20    22    1
    57    20    66    1
    58    20    67    1
    59    21    23    1
    60    21    68    1
    61    21    69    1
    62    22    24    1
    63    22    70    1
    64    22    71    1
    65    23    25    1
    66    23    72    1
    67    23    73    1
    68    25    74    1
    69    25    75    1
    70    25    76    1
    71    26    27    1
    72    26    78    1
    73    26    79    1
    74    27    28    1
    75    27    80    1
    76    27    81    1
    77    28    29   ar
    78    28    30   ar
    79    29    31   ar
    80    29    82    1
    81    30    32   ar
    82    30    83    1
    83    31    33   ar
    84    31    84    1
    85    32    33   ar
    86    32    85    1
