@<TRIPOS>MOLECULE
IMPHY014101
 43 46 0 0 0
SMALL
GASTEIGER

@<TRIPOS>ATOM
      1 CL          9.8904    2.2683    0.0000 Cl      1  UNL1       -0.1224
      2 O           8.0944    0.4428    0.0000 O.3     1  UNL1       -0.4852
      3 O           8.6518    3.1248    0.0000 O.3     1  UNL1       -0.3840
      4 O           6.4144   -2.8134    0.0000 O.3     1  UNL1       -0.5059
      5 O           4.6660   -2.7788    0.0000 O.2     1  UNL1       -0.2864
      6 N           4.6660    0.2212    0.0000 N.ar    1  UNL1       -0.3423
      7 C           7.6651    1.3851    0.0000 C.3     1  UNL1        0.1337
      8 C           6.6361    1.2698    0.0000 C.3     1  UNL1        0.0177
      9 C           8.1584    2.2549    0.0000 C.3     1  UNL1        0.1134
     10 C           6.4260    0.2559    0.0000 C.ar    1  UNL1        0.0222
     11 C           7.3321   -0.2580    0.0000 C.ar    1  UNL1        0.1298
     12 C           5.5321   -0.2788    0.0000 C.ar    1  UNL1        0.0633
     13 C           5.5321   -1.2788    0.0000 C.ar    1  UNL1        0.0876
     14 C           9.0283    1.7616    0.0000 C.3     1  UNL1        0.0546
     15 C           7.2886    2.7482    0.0000 C.3     1  UNL1       -0.0314
     16 C           7.3321   -1.2996    0.0000 C.ar    1  UNL1        0.0227
     17 C           6.4260   -1.8134    0.0000 C.ar    1  UNL1        0.1331
     18 C           3.8000   -0.2788    0.0000 C.ar    1  UNL1        0.0529
     19 C           4.6660   -1.7788    0.0000 C.ar    1  UNL1        0.2006
     20 C           3.8000   -1.2788    0.0000 C.ar    1  UNL1        0.0459
     21 C           4.6660    1.2212    0.0000 C.3     1  UNL1        0.0124
     22 C           2.9061    0.2559    0.0000 C.ar    1  UNL1       -0.0375
     23 C           2.9061   -1.8134    0.0000 C.ar    1  UNL1       -0.0489
     24 C           2.0000   -0.2580    0.0000 C.ar    1  UNL1       -0.0598
     25 C           2.0000   -1.2996    0.0000 C.ar    1  UNL1       -0.0610
     26 H           8.2845    1.3577    0.0000 H       1  UNL1        0.0766
     27 H           6.6322    1.8898    0.0000 H       1  UNL1        0.0352
     28 H           6.0191    1.3311    0.0000 H       1  UNL1        0.0352
     29 H           8.6334    1.2836    0.0000 H       1  UNL1        0.0459
     30 H           9.4305    1.2898    0.0000 H       1  UNL1        0.0459
     31 H           7.5944    3.2876    0.0000 H       1  UNL1        0.0259
     32 H           6.7493    3.0541    0.0000 H       1  UNL1        0.0259
     33 H           6.9827    2.2089    0.0000 H       1  UNL1        0.0259
     34 H           7.8678   -1.6117    0.0000 H       1  UNL1        0.0691
     35 H           9.2717    3.1296    0.0000 H       1  UNL1        0.2104
     36 H           5.2860    1.2212    0.0000 H       1  UNL1        0.0456
     37 H           4.6660    1.8412    0.0000 H       1  UNL1        0.0456
     38 H           4.0460    1.2212    0.0000 H       1  UNL1        0.0456
     39 H           2.9132    0.8758    0.0000 H       1  UNL1        0.0638
     40 H           2.9132   -2.4334    0.0000 H       1  UNL1        0.0625
     41 H           6.9478   -3.1296    0.0000 H       1  UNL1        0.2922
     42 H           1.4643    0.0541    0.0000 H       1  UNL1        0.0618
     43 H           1.4643   -1.6117    0.0000 H       1  UNL1        0.0618
@<TRIPOS>BOND
     1     1    14    1
     2     2     7    1
     3     2    11    1
     4     3     9    1
     5     3    35    1
     6     4    17    1
     7     4    41    1
     8     5    19    2
     9     6    12   ar
    10     6    18   ar
    11     6    21    1
    12     7     8    1
    13     7     9    1
    14     7    26    1
    15     8    10    1
    16     8    27    1
    17     8    28    1
    18     9    14    1
    19     9    15    1
    20    10    11   ar
    21    10    12   ar
    22    11    16   ar
    23    12    13   ar
    24    13    17   ar
    25    13    19   ar
    26    14    29    1
    27    14    30    1
    28    15    31    1
    29    15    32    1
    30    15    33    1
    31    16    17   ar
    32    16    34    1
    33    18    20   ar
    34    18    22   ar
    35    19    20   ar
    36    20    23   ar
    37    21    36    1
    38    21    37    1
    39    21    38    1
    40    22    24   ar
    41    22    39    1
    42    23    25   ar
    43    23    40    1
    44    24    25   ar
    45    24    42    1
    46    25    43    1
