@<TRIPOS>MOLECULE
IMPHY003293
 26 28 0 0 0
SMALL
GASTEIGER

@<TRIPOS>ATOM
      1 O           4.6660    1.3623    0.0000 O.3     1  UNL1       -0.3521
      2 N           5.5321   -0.1377    0.0000 N.pl3   1  UNL1       -0.1938
      3 N           4.6660   -1.6377    0.0000 N.2     1  UNL1       -0.0461
      4 C           6.4783    0.1671    0.0000 C.3     1  UNL1        0.0836
      5 C           7.0619   -0.6377    0.0000 C.3     1  UNL1       -0.0057
      6 C           6.4783   -1.4424    0.0000 C.3     1  UNL1        0.0543
      7 C           5.5321   -1.1377    0.0000 C.2     1  UNL1        0.2918
      8 C           4.6660    0.3623    0.0000 C.3     1  UNL1        0.2214
      9 C           3.8000   -0.1377    0.0000 C.ar    1  UNL1        0.0730
     10 C           3.8000   -1.1377    0.0000 C.ar    1  UNL1        0.1855
     11 C           2.9061    0.3970    0.0000 C.ar    1  UNL1       -0.0481
     12 C           2.9061   -1.6723    0.0000 C.ar    1  UNL1       -0.0104
     13 C           2.0000   -0.1169    0.0000 C.ar    1  UNL1       -0.0610
     14 C           2.0000   -1.1585    0.0000 C.ar    1  UNL1       -0.0576
     15 H           7.0157    0.4763    0.0000 H       1  UNL1        0.0727
     16 H           6.2272    0.7340    0.0000 H       1  UNL1        0.0727
     17 H           7.5228   -1.0524    0.0000 H       1  UNL1        0.0307
     18 H           7.5228   -0.2229    0.0000 H       1  UNL1        0.0307
     19 H           6.2272   -2.0093    0.0000 H       1  UNL1        0.0388
     20 H           7.0157   -1.7516    0.0000 H       1  UNL1        0.0388
     21 H           4.1291    0.6723    0.0000 H       1  UNL1        0.1145
     22 H           2.9132    1.0170    0.0000 H       1  UNL1        0.0624
     23 H           2.9132   -2.2923    0.0000 H       1  UNL1        0.0661
     24 H           4.1291    1.6723    0.0000 H       1  UNL1        0.2142
     25 H           1.4643    0.1952    0.0000 H       1  UNL1        0.0618
     26 H           1.4643   -1.4706    0.0000 H       1  UNL1        0.0619
@<TRIPOS>BOND
     1     1     8    1
     2     1    24    1
     3     2     4    1
     4     2     7    1
     5     2     8    1
     6     3     7    2
     7     3    10    1
     8     4     5    1
     9     4    15    1
    10     4    16    1
    11     5     6    1
    12     5    17    1
    13     5    18    1
    14     6     7    1
    15     6    19    1
    16     6    20    1
    17     8     9    1
    18     8    21    1
    19     9    10   ar
    20     9    11   ar
    21    10    12   ar
    22    11    13   ar
    23    11    22    1
    24    12    14   ar
    25    12    23    1
    26    13    14   ar
    27    13    25    1
    28    14    26    1
