@<TRIPOS>MOLECULE
IMPHY017622
 41 41 0 0 0
SMALL
GASTEIGER

@<TRIPOS>ATOM
      1 O           5.4543   -0.0902    0.0000 O.3     1  UNL1       -0.3648
      2 O           9.3244   -1.4077    0.0000 O.3     1  UNL1       -0.3848
      3 C           6.2633    0.4975    0.0000 C.3     1  UNL1        0.0804
      4 C           7.2144    0.1885    0.0000 C.3     1  UNL1       -0.0198
      5 C           4.6453    0.4975    0.0000 C.3     1  UNL1        0.0815
      6 C           4.9543    1.4486    0.0000 C.3     1  UNL1        0.0004
      7 C           5.9543    1.4486    0.0000 C.2     1  UNL1       -0.0455
      8 C           7.4223   -0.7896    0.0000 C.3     1  UNL1       -0.0180
      9 C           8.3733   -1.0986    0.0000 C.3     1  UNL1        0.0812
     10 C           3.6942    0.1885    0.0000 C.2     1  UNL1       -0.0566
     11 C           8.6823   -0.1476    0.0000 C.3     1  UNL1       -0.0325
     12 C           6.5421    2.2576    0.0000 C.2     1  UNL1       -0.0969
     13 C           8.0643   -2.0497    0.0000 C.2     1  UNL1       -0.0602
     14 C           2.9511    0.8577    0.0000 C.2     1  UNL1       -0.0772
     15 C           2.0000    0.5486    0.0000 C.3     1  UNL1       -0.0440
     16 C           3.1590    1.8358    0.0000 C.3     1  UNL1       -0.0440
     17 C           7.0862   -2.2576    0.0000 C.2     1  UNL1       -0.1000
     18 H           6.3603   -0.1148    0.0000 H       1  UNL1        0.0643
     19 H           7.8340    0.2102    0.0000 H       1  UNL1        0.0294
     20 H           7.3006    0.8025    0.0000 H       1  UNL1        0.0294
     21 H           4.5483   -0.1148    0.0000 H       1  UNL1        0.0644
     22 H           5.0191    2.0652    0.0000 H       1  UNL1        0.0339
     23 H           4.3478    1.5775    0.0000 H       1  UNL1        0.0339
     24 H           6.8026   -0.8113    0.0000 H       1  UNL1        0.0297
     25 H           7.3360   -1.4036    0.0000 H       1  UNL1        0.0297
     26 H           3.5653   -0.4179    0.0000 H       1  UNL1        0.0597
     27 H           9.2720   -0.3392    0.0000 H       1  UNL1        0.0260
     28 H           8.8739    0.4421    0.0000 H       1  UNL1        0.0260
     29 H           8.0927    0.0440    0.0000 H       1  UNL1        0.0260
     30 H           7.1587    2.1928    0.0000 H       1  UNL1        0.0535
     31 H           6.2899    2.8240    0.0000 H       1  UNL1        0.0535
     32 H           8.4792   -2.5104    0.0000 H       1  UNL1        0.0594
     33 H           9.4533   -2.0141    0.0000 H       1  UNL1        0.2106
     34 H           1.8084    1.1383    0.0000 H       1  UNL1        0.0274
     35 H           1.4103    0.3570    0.0000 H       1  UNL1        0.0274
     36 H           2.1916   -0.0410    0.0000 H       1  UNL1        0.0274
     37 H           3.7654    1.7069    0.0000 H       1  UNL1        0.0274
     38 H           3.2879    2.4422    0.0000 H       1  UNL1        0.0274
     39 H           2.5525    1.9647    0.0000 H       1  UNL1        0.0274
     40 H           6.6713   -1.7969    0.0000 H       1  UNL1        0.0533
     41 H           6.8946   -2.8473    0.0000 H       1  UNL1        0.0533
@<TRIPOS>BOND
     1     1     3    1
     2     1     5    1
     3     2     9    1
     4     2    33    1
     5     3     4    1
     6     3     7    1
     7     3    18    1
     8     4     8    1
     9     4    19    1
    10     4    20    1
    11     5     6    1
    12     5    10    1
    13     5    21    1
    14     6     7    1
    15     6    22    1
    16     6    23    1
    17     7    12    2
    18     8     9    1
    19     8    24    1
    20     8    25    1
    21     9    11    1
    22     9    13    1
    23    10    14    2
    24    10    26    1
    25    11    27    1
    26    11    28    1
    27    11    29    1
    28    12    30    1
    29    12    31    1
    30    13    17    2
    31    13    32    1
    32    14    15    1
    33    14    16    1
    34    15    34    1
    35    15    35    1
    36    15    36    1
    37    16    37    1
    38    16    38    1
    39    16    39    1
    40    17    40    1
    41    17    41    1
