@<TRIPOS>MOLECULE
IMPHY002083
 45 48 0 0 0
SMALL
GASTEIGER

@<TRIPOS>ATOM
      1 O           6.2142    0.4115    0.0000 O.3     1  UNL1       -0.3320
      2 O           5.2686   -1.3441    0.0000 O.3     1  UNL1       -0.4251
      3 O           2.0000    3.0508    0.0000 O.2     1  UNL1       -0.2756
      4 O           5.7811   -3.0508    0.0000 O.2     1  UNL1       -0.2452
      5 N           3.5047    2.1067    0.0000 N.am    1  UNL1       -0.2981
      6 C           4.6282    0.6979    0.0000 C.3     1  UNL1        0.0132
      7 C           4.7642   -0.2868    0.0000 C.3     1  UNL1        0.0355
      8 C           3.7272    1.1318    0.0000 C.3     1  UNL1        0.0321
      9 C           5.5291    1.1318    0.0000 C.3     1  UNL1        0.0683
     10 C           5.7424   -0.4635    0.0000 C.3     1  UNL1        0.2398
     11 C           5.7517    2.1067    0.0000 C.3     1  UNL1       -0.0247
     12 C           2.8725    0.6241    0.0000 C.3     1  UNL1       -0.0257
     13 C           4.0426   -0.9791    0.0000 C.3     1  UNL1       -0.0464
     14 C           4.1282    2.8885    0.0000 C.3     1  UNL1        0.0151
     15 C           5.1282    2.8885    0.0000 C.3     1  UNL1       -0.0348
     16 C           2.1245    1.2788    0.0000 C.3     1  UNL1        0.0258
     17 C           2.5144    2.1932    0.0000 C.2     1  UNL1        0.2159
     18 C           6.7264   -0.6420    0.0000 C.2     1  UNL1       -0.0031
     19 C           3.0822   -0.7004    0.0000 C.3     1  UNL1       -0.0648
     20 C           6.8606   -1.6330    0.0000 C.2     1  UNL1        0.0358
     21 C           5.9596   -2.0669    0.0000 C.2     1  UNL1        0.3374
     22 C           7.7412   -2.1069    0.0000 C.3     1  UNL1       -0.0330
     23 H           3.9412    0.1974    0.0000 H       1  UNL1        0.0349
     24 H           4.9433   -0.8804    0.0000 H       1  UNL1        0.0372
     25 H           3.7642    0.2826    0.0000 H       1  UNL1        0.0504
     26 H           6.3488    1.3568    0.0000 H       1  UNL1        0.0601
     27 H           6.3103    1.8377    0.0000 H       1  UNL1        0.0291
     28 H           6.1382    2.5914    0.0000 H       1  UNL1        0.0291
     29 H           2.4174    0.2031    0.0000 H       1  UNL1        0.0288
     30 H           3.2434    0.1273    0.0000 H       1  UNL1        0.0288
     31 H           3.7690   -1.5355    0.0000 H       1  UNL1        0.0268
     32 H           4.5430   -1.3452    0.0000 H       1  UNL1        0.0268
     33 H           4.2661    3.4930    0.0000 H       1  UNL1        0.0465
     34 H           3.5696    3.1576    0.0000 H       1  UNL1        0.0465
     35 H           5.6868    3.1576    0.0000 H       1  UNL1        0.0281
     36 H           4.9902    3.4930    0.0000 H       1  UNL1        0.0281
     37 H           1.5829    1.5806    0.0000 H       1  UNL1        0.0359
     38 H           1.7674    0.7719    0.0000 H       1  UNL1        0.0359
     39 H           7.1745   -0.2136    0.0000 H       1  UNL1        0.0641
     40 H           3.2551   -0.1050    0.0000 H       1  UNL1        0.0230
     41 H           2.4868   -0.5275    0.0000 H       1  UNL1        0.0230
     42 H           2.9094   -1.2958    0.0000 H       1  UNL1        0.0230
     43 H           7.4474   -2.6528    0.0000 H       1  UNL1        0.0280
     44 H           8.2872   -2.4007    0.0000 H       1  UNL1        0.0280
     45 H           8.0350   -1.5609    0.0000 H       1  UNL1        0.0280
@<TRIPOS>BOND
     1     1     9    1
     2    10     1    1
     3     2    10    1
     4     2    21    1
     5     3    17    2
     6     4    21    2
     7     5     8    1
     8     5    14    1
     9     5    17   am
    10     6     7    1
    11     6     8    1
    12     6     9    1
    13     6    23    1
    14     7    10    1
    15     7    13    1
    16     7    24    1
    17     8    12    1
    18     8    25    1
    19     9    11    1
    20     9    26    1
    21    10    18    1
    22    11    15    1
    23    11    27    1
    24    11    28    1
    25    12    16    1
    26    12    29    1
    27    12    30    1
    28    13    19    1
    29    13    31    1
    30    13    32    1
    31    14    15    1
    32    14    33    1
    33    14    34    1
    34    15    35    1
    35    15    36    1
    36    16    17    1
    37    16    37    1
    38    16    38    1
    39    18    20    2
    40    18    39    1
    41    19    40    1
    42    19    41    1
    43    19    42    1
    44    20    21    1
    45    20    22    1
    46    22    43    1
    47    22    44    1
    48    22    45    1
