@<TRIPOS>MOLECULE
IMPHY013231
 55 59 0 0 0
SMALL
GASTEIGER

@<TRIPOS>ATOM
      1 O           8.6445    0.8536    0.0000 O.3     1  UNL1       -0.4755
      2 O          10.4366   -0.1811    0.0000 O.3     1  UNL1       -0.4765
      3 O           6.9006   -0.1533    0.0000 O.2     1  UNL1       -0.4470
      4 O           8.6707    2.8780    0.0000 O.3     1  UNL1       -0.3912
      5 O           8.6605   -3.1880    0.0000 O.3     1  UNL1       -0.5058
      6 O          13.9087    0.8471    0.0000 O.3     1  UNL1       -0.4914
      7 O           5.1304   -2.2121    0.0000 O.3     1  UNL1       -0.5007
      8 O           6.9121   -3.2226    0.0000 O.2     1  UNL1       -0.2830
      9 O          13.9164    2.8471    0.0000 O.3     1  UNL1       -0.5033
     10 O           2.5381    1.3462    0.0000 O.3     1  UNL1       -0.5068
     11 C          10.4446    0.8605    0.0000 C.3     1  UNL1        0.1642
     12 C           9.5425    1.3813    0.0000 C.3     1  UNL1        0.1641
     13 C           8.6605   -0.1880    0.0000 C.ar    1  UNL1        0.2059
     14 C          11.3125    1.3572    0.0000 C.ar    1  UNL1       -0.0000
     15 C           9.5266   -0.6880    0.0000 C.ar    1  UNL1        0.1702
     16 C           9.5386    2.3813    0.0000 C.3     1  UNL1        0.0850
     17 C           7.7945   -0.6880    0.0000 C.ar    1  UNL1        0.1881
     18 C           7.7945   -1.6880    0.0000 C.ar    1  UNL1        0.1128
     19 C           9.5266   -1.6880    0.0000 C.ar    1  UNL1        0.0262
     20 C           8.6605   -2.1880    0.0000 C.ar    1  UNL1        0.1350
     21 C          12.1766    0.8538    0.0000 C.ar    1  UNL1       -0.0095
     22 C          11.3164    2.3571    0.0000 C.ar    1  UNL1       -0.0513
     23 C           6.9006   -2.2226    0.0000 C.ar    1  UNL1        0.2380
     24 C           5.9945   -0.6671    0.0000 C.ar    1  UNL1        0.1808
     25 C          13.0446    1.3505    0.0000 C.ar    1  UNL1        0.1616
     26 C           5.9945   -1.7088    0.0000 C.ar    1  UNL1        0.2082
     27 C          12.1843    2.8538    0.0000 C.ar    1  UNL1       -0.0161
     28 C          13.0484    2.3505    0.0000 C.ar    1  UNL1        0.1585
     29 C           5.1304   -0.1638    0.0000 C.ar    1  UNL1        0.0213
     30 C           4.2625   -0.6605    0.0000 C.ar    1  UNL1       -0.0475
     31 C           5.1343    0.8362    0.0000 C.ar    1  UNL1       -0.0475
     32 C           3.3984   -0.1571    0.0000 C.ar    1  UNL1       -0.0195
     33 C           4.2702    1.3395    0.0000 C.ar    1  UNL1       -0.0195
     34 C           3.4022    0.8429    0.0000 C.ar    1  UNL1        0.1169
     35 C          14.7766    1.3438    0.0000 C.3     1  UNL1        0.0790
     36 H          10.4458    1.4805    0.0000 H       1  UNL1        0.0823
     37 H           9.0038    1.6882    0.0000 H       1  UNL1        0.0798
     38 H          10.1496    2.2760    0.0000 H       1  UNL1        0.0595
     39 H           9.7485    2.9647    0.0000 H       1  UNL1        0.0595
     40 H          10.0635   -1.9980    0.0000 H       1  UNL1        0.0692
     41 H          12.1742    0.2338    0.0000 H       1  UNL1        0.0659
     42 H          10.7806    2.6692    0.0000 H       1  UNL1        0.0623
     43 H          12.1867    3.4738    0.0000 H       1  UNL1        0.0655
     44 H           8.6683    3.4980    0.0000 H       1  UNL1        0.2096
     45 H           9.1975   -3.4980    0.0000 H       1  UNL1        0.2922
     46 H           4.2601   -1.2805    0.0000 H       1  UNL1        0.0626
     47 H           5.6724    1.1441    0.0000 H       1  UNL1        0.0626
     48 H           5.1328   -2.8321    0.0000 H       1  UNL1        0.2924
     49 H          13.9188    3.4671    0.0000 H       1  UNL1        0.2923
     50 H           2.8602   -0.4651    0.0000 H       1  UNL1        0.0654
     51 H           4.2726    1.9595    0.0000 H       1  UNL1        0.0654
     52 H          15.0845    0.8057    0.0000 H       1  UNL1        0.0660
     53 H          15.3147    1.6517    0.0000 H       1  UNL1        0.0660
     54 H          14.4687    1.8819    0.0000 H       1  UNL1        0.0660
     55 H           2.0000    1.0383    0.0000 H       1  UNL1        0.2921
@<TRIPOS>BOND
     1     1    12    1
     2     1    13    1
     3     2    11    1
     4     2    15    1
     5     3    17   ar
     6     3    24   ar
     7     4    16    1
     8     4    44    1
     9     5    20    1
    10     5    45    1
    11     6    25    1
    12     6    35    1
    13     7    26    1
    14     7    48    1
    15     8    23    2
    16     9    28    1
    17     9    49    1
    18    10    34    1
    19    10    55    1
    20    11    12    1
    21    11    14    1
    22    11    36    1
    23    12    16    1
    24    12    37    1
    25    13    15   ar
    26    13    17   ar
    27    14    21   ar
    28    14    22   ar
    29    15    19   ar
    30    16    38    1
    31    16    39    1
    32    17    18   ar
    33    18    20   ar
    34    18    23   ar
    35    19    20   ar
    36    19    40    1
    37    21    25   ar
    38    21    41    1
    39    22    27   ar
    40    22    42    1
    41    23    26   ar
    42    24    26   ar
    43    24    29    1
    44    25    28   ar
    45    27    28   ar
    46    27    43    1
    47    29    30   ar
    48    29    31   ar
    49    30    32   ar
    50    30    46    1
    51    31    33   ar
    52    31    47    1
    53    32    34   ar
    54    32    50    1
    55    33    34   ar
    56    33    51    1
    57    35    52    1
    58    35    53    1
    59    35    54    1
