@<TRIPOS>MOLECULE
IMPHY001129
 117 118 0 0 0
SMALL
GASTEIGER

@<TRIPOS>ATOM
      1 O          12.3923   -4.5000    0.0000 O.3     1  UNL1       -0.4944
      2 O          15.8564   -4.5000    0.0000 O.3     1  UNL1       -0.5060
      3 O          14.1244   -8.5000    0.0000 O.2     1  UNL1       -0.4911
      4 O          12.3923   -7.5000    0.0000 O.2     1  UNL1       -0.2837
      5 O          15.8564   -5.5000    0.0000 O.2     1  UNL1       -0.2871
      6 C           9.7942   -6.0000    0.0000 C.3     1  UNL1       -0.0530
      7 C          10.6603   -5.5000    0.0000 C.3     1  UNL1       -0.0528
      8 C           8.9282   -5.5000    0.0000 C.3     1  UNL1       -0.0531
      9 C          11.5263   -6.0000    0.0000 C.3     1  UNL1       -0.0489
     10 C          15.8564    0.5000    0.0000 C.3     1  UNL1       -0.0530
     11 C          15.8564    1.5000    0.0000 C.3     1  UNL1       -0.0531
     12 C          14.9904    0.0000    0.0000 C.3     1  UNL1       -0.0528
     13 C           8.0622   -6.0000    0.0000 C.3     1  UNL1       -0.0530
     14 C          16.7224    2.0000    0.0000 C.3     1  UNL1       -0.0530
     15 C          14.9904   -1.0000    0.0000 C.3     1  UNL1       -0.0491
     16 C          12.3923   -5.5000    0.0000 C.3     1  UNL1       -0.0232
     17 C           7.1962   -5.5000    0.0000 C.3     1  UNL1       -0.0528
     18 C          16.7224    3.0000    0.0000 C.3     1  UNL1       -0.0528
     19 C          14.1244   -1.5000    0.0000 C.3     1  UNL1       -0.0275
     20 C          13.2583   -6.0000    0.0000 C.2     1  UNL1        0.0145
     21 C           6.3301   -6.0000    0.0000 C.3     1  UNL1       -0.0496
     22 C          14.1244   -5.5000    0.0000 C.2     1  UNL1        0.0428
     23 C          14.1244   -2.5000    0.0000 C.ar    1  UNL1       -0.0404
     24 C          17.5885    3.5000    0.0000 C.3     1  UNL1       -0.0496
     25 C          14.1244   -4.5000    0.0000 C.ar    1  UNL1        0.0692
     26 C           5.4641   -5.5000    0.0000 C.3     1  UNL1       -0.0348
     27 C          13.2583   -4.0000    0.0000 C.ar    1  UNL1        0.1317
     28 C          13.2583   -3.0000    0.0000 C.ar    1  UNL1       -0.0159
     29 C          17.5885    4.5000    0.0000 C.3     1  UNL1       -0.0348
     30 C          14.9904   -3.0000    0.0000 C.ar    1  UNL1       -0.0162
     31 C          14.9904   -4.0000    0.0000 C.ar    1  UNL1        0.1284
     32 C          13.2583   -7.0000    0.0000 C.2     1  UNL1        0.2242
     33 C          14.9904   -6.0000    0.0000 C.2     1  UNL1        0.1908
     34 C          14.1244   -7.5000    0.0000 C.2     1  UNL1        0.1705
     35 C          14.9904   -7.0000    0.0000 C.2     1  UNL1        0.0312
     36 C           4.5981   -6.0000    0.0000 C.2     1  UNL1       -0.0879
     37 C          18.4545    5.0000    0.0000 C.2     1  UNL1       -0.0879
     38 C           3.7320   -5.5000    0.0000 C.2     1  UNL1       -0.0879
     39 C          18.4545    6.0000    0.0000 C.2     1  UNL1       -0.0879
     40 C           3.7320   -4.5000    0.0000 C.3     1  UNL1       -0.0348
     41 C          17.5885    6.5000    0.0000 C.3     1  UNL1       -0.0348
     42 C           2.8660   -4.0000    0.0000 C.3     1  UNL1       -0.0499
     43 C          17.5885    7.5000    0.0000 C.3     1  UNL1       -0.0499
     44 C          11.5263   -4.0000    0.0000 C.3     1  UNL1        0.0788
     45 C           2.8660   -3.0000    0.0000 C.3     1  UNL1       -0.0556
     46 C          16.7224    8.0000    0.0000 C.3     1  UNL1       -0.0556
     47 C          14.9904   -9.0000    0.0000 C.3     1  UNL1        0.0790
     48 C           2.0000   -2.5000    0.0000 C.3     1  UNL1       -0.0653
     49 C          16.7224    9.0000    0.0000 C.3     1  UNL1       -0.0653
     50 H           9.3957   -6.4750    0.0000 H       1  UNL1        0.0265
     51 H          10.1928   -6.4750    0.0000 H       1  UNL1        0.0265
     52 H          11.0588   -5.0250    0.0000 H       1  UNL1        0.0265
     53 H          10.2617   -5.0250    0.0000 H       1  UNL1        0.0265
     54 H           9.3267   -5.0250    0.0000 H       1  UNL1        0.0265
     55 H           8.5297   -5.0250    0.0000 H       1  UNL1        0.0265
     56 H          11.1278   -6.4750    0.0000 H       1  UNL1        0.0268
     57 H          11.9248   -6.4750    0.0000 H       1  UNL1        0.0268
     58 H          16.0685   -0.0826    0.0000 H       1  UNL1        0.0265
     59 H          16.4670    0.6077    0.0000 H       1  UNL1        0.0265
     60 H          15.6444    2.0826    0.0000 H       1  UNL1        0.0265
     61 H          15.2458    1.3923    0.0000 H       1  UNL1        0.0265
     62 H          14.7783    0.5826    0.0000 H       1  UNL1        0.0265
     63 H          14.3798   -0.1077    0.0000 H       1  UNL1        0.0265
     64 H           7.6636   -6.4750    0.0000 H       1  UNL1        0.0265
     65 H           8.4607   -6.4750    0.0000 H       1  UNL1        0.0265
     66 H          16.9345    1.4174    0.0000 H       1  UNL1        0.0265
     67 H          17.3330    2.1077    0.0000 H       1  UNL1        0.0265
     68 H          15.2024   -1.5826    0.0000 H       1  UNL1        0.0268
     69 H          15.6010   -0.8923    0.0000 H       1  UNL1        0.0268
     70 H          12.7908   -5.0250    0.0000 H       1  UNL1        0.0315
     71 H          11.9938   -5.0250    0.0000 H       1  UNL1        0.0315
     72 H           7.5947   -5.0250    0.0000 H       1  UNL1        0.0265
     73 H           6.7976   -5.0250    0.0000 H       1  UNL1        0.0265
     74 H          16.5104    3.5826    0.0000 H       1  UNL1        0.0265
     75 H          16.1119    2.8923    0.0000 H       1  UNL1        0.0265
     76 H          13.9123   -0.9174    0.0000 H       1  UNL1        0.0313
     77 H          13.5138   -1.6077    0.0000 H       1  UNL1        0.0313
     78 H           5.9316   -6.4750    0.0000 H       1  UNL1        0.0268
     79 H           6.7287   -6.4750    0.0000 H       1  UNL1        0.0268
     80 H          17.8005    2.9174    0.0000 H       1  UNL1        0.0268
     81 H          18.1990    3.6077    0.0000 H       1  UNL1        0.0268
     82 H           5.8626   -5.0250    0.0000 H       1  UNL1        0.0307
     83 H           5.0656   -5.0250    0.0000 H       1  UNL1        0.0307
     84 H          12.7214   -2.6900    0.0000 H       1  UNL1        0.0657
     85 H          17.3764    5.0826    0.0000 H       1  UNL1        0.0307
     86 H          16.9779    4.3923    0.0000 H       1  UNL1        0.0307
     87 H          15.5273   -2.6900    0.0000 H       1  UNL1        0.0657
     88 H          15.5273   -7.3100    0.0000 H       1  UNL1        0.0694
     89 H           4.5981   -6.6200    0.0000 H       1  UNL1        0.0569
     90 H          18.9914    4.6900    0.0000 H       1  UNL1        0.0569
     91 H           3.1951   -5.8100    0.0000 H       1  UNL1        0.0569
     92 H          18.9914    6.3100    0.0000 H       1  UNL1        0.0569
     93 H          16.3933   -4.1900    0.0000 H       1  UNL1        0.2922
     94 H           4.3426   -4.6077    0.0000 H       1  UNL1        0.0307
     95 H           3.9441   -3.9174    0.0000 H       1  UNL1        0.0307
     96 H          16.9779    6.6077    0.0000 H       1  UNL1        0.0307
     97 H          17.3764    5.9174    0.0000 H       1  UNL1        0.0307
     98 H           2.2554   -3.8923    0.0000 H       1  UNL1        0.0268
     99 H           2.6540   -4.5826    0.0000 H       1  UNL1        0.0268
    100 H          18.1990    7.3923    0.0000 H       1  UNL1        0.0268
    101 H          17.8005    8.0826    0.0000 H       1  UNL1        0.0268
    102 H          11.8363   -3.4631    0.0000 H       1  UNL1        0.0660
    103 H          10.9893   -3.6900    0.0000 H       1  UNL1        0.0660
    104 H          11.2163   -4.5369    0.0000 H       1  UNL1        0.0660
    105 H           3.4766   -3.1077    0.0000 H       1  UNL1        0.0263
    106 H           3.0781   -2.4174    0.0000 H       1  UNL1        0.0263
    107 H          16.1119    8.1077    0.0000 H       1  UNL1        0.0263
    108 H          16.5104    7.4174    0.0000 H       1  UNL1        0.0263
    109 H          14.6804   -9.5369    0.0000 H       1  UNL1        0.0660
    110 H          15.5273   -9.3100    0.0000 H       1  UNL1        0.0660
    111 H          15.3004   -8.4631    0.0000 H       1  UNL1        0.0660
    112 H           2.3100   -1.9631    0.0000 H       1  UNL1        0.0230
    113 H           1.4631   -2.1900    0.0000 H       1  UNL1        0.0230
    114 H           1.6900   -3.0369    0.0000 H       1  UNL1        0.0230
    115 H          17.3424    9.0000    0.0000 H       1  UNL1        0.0230
    116 H          16.7224    9.6200    0.0000 H       1  UNL1        0.0230
    117 H          16.1024    9.0000    0.0000 H       1  UNL1        0.0230
@<TRIPOS>BOND
     1     1    27    1
     2     1    44    1
     3     2    31    1
     4     2    93    1
     5     3    34    1
     6     3    47    1
     7     4    32    2
     8     5    33    2
     9     6     7    1
    10     6     8    1
    11     6    50    1
    12     6    51    1
    13     7     9    1
    14     7    52    1
    15     7    53    1
    16     8    13    1
    17     8    54    1
    18     8    55    1
    19     9    16    1
    20     9    56    1
    21     9    57    1
    22    10    11    1
    23    10    12    1
    24    10    58    1
    25    10    59    1
    26    11    14    1
    27    11    60    1
    28    11    61    1
    29    12    15    1
    30    12    62    1
    31    12    63    1
    32    13    17    1
    33    13    64    1
    34    13    65    1
    35    14    18    1
    36    14    66    1
    37    14    67    1
    38    15    19    1
    39    15    68    1
    40    15    69    1
    41    16    20    1
    42    16    70    1
    43    16    71    1
    44    17    21    1
    45    17    72    1
    46    17    73    1
    47    18    24    1
    48    18    74    1
    49    18    75    1
    50    19    23    1
    51    19    76    1
    52    19    77    1
    53    20    22    2
    54    20    32    1
    55    21    26    1
    56    21    78    1
    57    21    79    1
    58    22    25    1
    59    22    33    1
    60    23    28   ar
    61    23    30   ar
    62    24    29    1
    63    24    80    1
    64    24    81    1
    65    25    27   ar
    66    25    31   ar
    67    26    36    1
    68    26    82    1
    69    26    83    1
    70    27    28   ar
    71    28    84    1
    72    29    37    1
    73    29    85    1
    74    29    86    1
    75    30    31   ar
    76    30    87    1
    77    32    34    1
    78    33    35    1
    79    34    35    2
    80    35    88    1
    81    36    38    2
    82    36    89    1
    83    37    39    2
    84    37    90    1
    85    38    40    1
    86    38    91    1
    87    39    41    1
    88    39    92    1
    89    40    42    1
    90    40    94    1
    91    40    95    1
    92    41    43    1
    93    41    96    1
    94    41    97    1
    95    42    45    1
    96    42    98    1
    97    42    99    1
    98    43    46    1
    99    43   100    1
   100    43   101    1
   101    44   102    1
   102    44   103    1
   103    44   104    1
   104    45    48    1
   105    45   105    1
   106    45   106    1
   107    46    49    1
   108    46   107    1
   109    46   108    1
   110    47   109    1
   111    47   110    1
   112    47   111    1
   113    48   112    1
   114    48   113    1
   115    48   114    1
   116    49   115    1
   117    49   116    1
   118    49   117    1
