@<TRIPOS>MOLECULE
IMPHY014141
 60 61 0 0 0
SMALL
GASTEIGER

@<TRIPOS>ATOM
      1 O           2.5369   -1.6900    0.0000 O.3     1  UNL1       -0.5031
      2 O           2.5369   -3.6900    0.0000 O.3     1  UNL1       -0.5033
      3 O           7.7331   -0.6900    0.0000 O.2     1  UNL1       -0.2919
      4 O           7.7331   -3.6900    0.0000 O.3     1  UNL1       -0.5059
      5 O          11.1972   -3.6900    0.0000 O.3     1  UNL1       -0.5066
      6 C           5.1350   -2.1900    0.0000 C.ar    1  UNL1       -0.0398
      7 C           4.2690   -1.6900    0.0000 C.ar    1  UNL1        0.0046
      8 C           6.0010   -1.6900    0.0000 C.3     1  UNL1       -0.0203
      9 C           4.2690   -0.6900    0.0000 C.3     1  UNL1       -0.0054
     10 C           6.8671   -2.1900    0.0000 C.3     1  UNL1        0.0146
     11 C           5.1350    0.8100    0.0000 C.2     1  UNL1       -0.0759
     12 C           5.1350   -0.1900    0.0000 C.2     1  UNL1       -0.0806
     13 C           3.4030   -2.1900    0.0000 C.ar    1  UNL1        0.1620
     14 C           6.0010    1.3100    0.0000 C.3     1  UNL1       -0.0286
     15 C           5.1350   -3.1900    0.0000 C.ar    1  UNL1       -0.0546
     16 C           6.0010    2.3100    0.0000 C.3     1  UNL1       -0.0308
     17 C           3.4030   -3.1900    0.0000 C.ar    1  UNL1        0.1585
     18 C           4.2690   -3.6900    0.0000 C.ar    1  UNL1       -0.0163
     19 C           7.7331   -1.6900    0.0000 C.2     1  UNL1        0.1670
     20 C           4.2690    1.3100    0.0000 C.3     1  UNL1       -0.0438
     21 C           8.5991   -2.1900    0.0000 C.ar    1  UNL1        0.0590
     22 C           6.8671    2.8100    0.0000 C.2     1  UNL1       -0.0850
     23 C           6.8671    3.8100    0.0000 C.2     1  UNL1       -0.0796
     24 C           8.5991   -3.1900    0.0000 C.ar    1  UNL1        0.1308
     25 C           9.4651   -1.6900    0.0000 C.ar    1  UNL1       -0.0443
     26 C           9.4651   -3.6900    0.0000 C.ar    1  UNL1        0.0220
     27 C          10.3312   -2.1900    0.0000 C.ar    1  UNL1       -0.0193
     28 C           7.7331    4.3100    0.0000 C.3     1  UNL1       -0.0440
     29 C           6.0010    4.3100    0.0000 C.3     1  UNL1       -0.0440
     30 C          10.3312   -3.1900    0.0000 C.ar    1  UNL1        0.1204
     31 H           6.3996   -1.2150    0.0000 H       1  UNL1        0.0317
     32 H           5.6025   -1.2150    0.0000 H       1  UNL1        0.0317
     33 H           4.0569   -0.1074    0.0000 H       1  UNL1        0.0357
     34 H           3.6584   -0.7977    0.0000 H       1  UNL1        0.0357
     35 H           6.4685   -2.6650    0.0000 H       1  UNL1        0.0348
     36 H           7.2656   -2.6650    0.0000 H       1  UNL1        0.0348
     37 H           5.6720   -0.5000    0.0000 H       1  UNL1        0.0575
     38 H           6.2131    0.7274    0.0000 H       1  UNL1        0.0313
     39 H           6.6116    1.4177    0.0000 H       1  UNL1        0.0313
     40 H           5.6720   -3.5000    0.0000 H       1  UNL1        0.0622
     41 H           5.7890    2.8926    0.0000 H       1  UNL1        0.0310
     42 H           5.3905    2.2023    0.0000 H       1  UNL1        0.0310
     43 H           4.2690   -4.3100    0.0000 H       1  UNL1        0.0655
     44 H           4.5790    1.8469    0.0000 H       1  UNL1        0.0274
     45 H           3.7320    1.6200    0.0000 H       1  UNL1        0.0274
     46 H           3.9590    0.7731    0.0000 H       1  UNL1        0.0274
     47 H           7.4040    2.5000    0.0000 H       1  UNL1        0.0572
     48 H           2.0000   -2.0000    0.0000 H       1  UNL1        0.2923
     49 H           9.4651   -1.0700    0.0000 H       1  UNL1        0.0627
     50 H           2.5369   -4.3100    0.0000 H       1  UNL1        0.2923
     51 H           9.4651   -4.3100    0.0000 H       1  UNL1        0.0691
     52 H          10.8681   -1.8800    0.0000 H       1  UNL1        0.0654
     53 H           8.0431    3.7731    0.0000 H       1  UNL1        0.0274
     54 H           8.2700    4.6200    0.0000 H       1  UNL1        0.0274
     55 H           7.4231    4.8469    0.0000 H       1  UNL1        0.0274
     56 H           6.3110    4.8469    0.0000 H       1  UNL1        0.0274
     57 H           5.4641    4.6200    0.0000 H       1  UNL1        0.0274
     58 H           5.6910    3.7731    0.0000 H       1  UNL1        0.0274
     59 H           7.7331   -4.3100    0.0000 H       1  UNL1        0.2922
     60 H          11.7341   -3.3800    0.0000 H       1  UNL1        0.2921
@<TRIPOS>BOND
     1     1    13    1
     2     1    48    1
     3     2    17    1
     4     2    50    1
     5     3    19    2
     6     4    24    1
     7     4    59    1
     8     5    30    1
     9     5    60    1
    10     6     7   ar
    11     6     8    1
    12     6    15   ar
    13     7     9    1
    14     7    13   ar
    15     8    10    1
    16     8    31    1
    17     8    32    1
    18     9    12    1
    19     9    33    1
    20     9    34    1
    21    10    19    1
    22    10    35    1
    23    10    36    1
    24    11    12    2
    25    11    14    1
    26    11    20    1
    27    12    37    1
    28    13    17   ar
    29    14    16    1
    30    14    38    1
    31    14    39    1
    32    15    18   ar
    33    15    40    1
    34    16    22    1
    35    16    41    1
    36    16    42    1
    37    17    18   ar
    38    18    43    1
    39    19    21    1
    40    20    44    1
    41    20    45    1
    42    20    46    1
    43    21    24   ar
    44    21    25   ar
    45    22    23    2
    46    22    47    1
    47    23    28    1
    48    23    29    1
    49    24    26   ar
    50    25    27   ar
    51    25    49    1
    52    26    30   ar
    53    26    51    1
    54    27    30   ar
    55    27    52    1
    56    28    53    1
    57    28    54    1
    58    28    55    1
    59    29    56    1
    60    29    57    1
    61    29    58    1
