@<TRIPOS>MOLECULE
IMPHY007897
 59 62 0 0 0
SMALL
GASTEIGER

@<TRIPOS>ATOM
      1 O           7.2342    0.6718    0.0000 O.2     1  UNL1       -0.4535
      2 O           4.5841   -0.8766    0.0000 O.3     1  UNL1       -0.4791
      3 O           4.6361    2.1718    0.0000 O.2     1  UNL1       -0.2865
      4 O           5.4803    3.7033    0.0000 O.3     1  UNL1       -0.5058
      5 O           9.0201    3.7169    0.0000 O.3     1  UNL1       -0.5062
      6 O           8.2246   -2.9651    0.0000 O.3     1  UNL1       -0.4914
      7 O           6.4213   -4.0249    0.0000 O.3     1  UNL1       -0.5032
      8 C           5.5021    0.6718    0.0000 C.ar    1  UNL1        0.0869
      9 C           4.5921    0.1650    0.0000 C.3     1  UNL1        0.1507
     10 C           6.3682    0.1718    0.0000 C.ar    1  UNL1        0.1499
     11 C           6.3842   -0.8697    0.0000 C.ar    1  UNL1        0.0631
     12 C           6.3682    2.1718    0.0000 C.ar    1  UNL1        0.1062
     13 C           7.2342    1.6718    0.0000 C.ar    1  UNL1        0.1497
     14 C           5.5021    1.6718    0.0000 C.ar    1  UNL1        0.2036
     15 C           5.4862   -1.3974    0.0000 C.ar    1  UNL1        0.1362
     16 C           8.1442    2.1787    0.0000 C.ar    1  UNL1        0.0409
     17 C           3.7319    0.6750    0.0000 C.2     1  UNL1       -0.0406
     18 C           6.3521    3.2134    0.0000 C.ar    1  UNL1        0.1347
     19 C           7.3361   -1.3903    0.0000 C.ar    1  UNL1       -0.0021
     20 C           9.0044    1.6687    0.0000 C.3     1  UNL1       -0.0023
     21 C           8.1522    3.2203    0.0000 C.ar    1  UNL1        0.1273
     22 C           5.4778   -2.4824    0.0000 C.ar    1  UNL1        0.0259
     23 C           7.2501    3.7411    0.0000 C.ar    1  UNL1        0.0225
     24 C           2.8602    0.1850    0.0000 C.2     1  UNL1       -0.0759
     25 C           7.3529   -2.4752    0.0000 C.ar    1  UNL1        0.1622
     26 C           6.4174   -3.0249    0.0000 C.ar    1  UNL1        0.1620
     27 C           9.8761    2.1587    0.0000 C.2     1  UNL1       -0.0807
     28 C           2.0000    0.6950    0.0000 C.3     1  UNL1       -0.0439
     29 C           2.8486   -0.8149    0.0000 C.3     1  UNL1       -0.0439
     30 C          10.7363    1.6487    0.0000 C.2     1  UNL1       -0.0793
     31 C          11.6080    2.1386    0.0000 C.3     1  UNL1       -0.0440
     32 C          10.7247    0.6487    0.0000 C.3     1  UNL1       -0.0440
     33 C           8.2362   -3.9650    0.0000 C.3     1  UNL1        0.0790
     34 H           4.0522   -0.1398    0.0000 H       1  UNL1        0.0833
     35 H           3.7391    1.2949    0.0000 H       1  UNL1        0.0611
     36 H           7.8670   -1.0700    0.0000 H       1  UNL1        0.0663
     37 H           8.6004    1.1984    0.0000 H       1  UNL1        0.0358
     38 H           9.3974    1.1892    0.0000 H       1  UNL1        0.0358
     39 H           4.9397   -2.7903    0.0000 H       1  UNL1        0.0692
     40 H           7.2477    4.3611    0.0000 H       1  UNL1        0.0691
     41 H           9.8833    2.7786    0.0000 H       1  UNL1        0.0575
     42 H           2.2287   -0.8077    0.0000 H       1  UNL1        0.0274
     43 H           2.8414   -1.4349    0.0000 H       1  UNL1        0.0274
     44 H           3.4686   -0.8221    0.0000 H       1  UNL1        0.0274
     45 H           2.3162    1.2283    0.0000 H       1  UNL1        0.0274
     46 H           1.4667    1.0112    0.0000 H       1  UNL1        0.0274
     47 H           1.6838    0.1617    0.0000 H       1  UNL1        0.0274
     48 H           5.4732    4.3233    0.0000 H       1  UNL1        0.2922
     49 H           9.0225    4.3369    0.0000 H       1  UNL1        0.2921
     50 H           5.8856   -4.3369    0.0000 H       1  UNL1        0.2923
     51 H          11.9118    1.5982    0.0000 H       1  UNL1        0.0274
     52 H          12.1485    2.4424    0.0000 H       1  UNL1        0.0274
     53 H          11.3043    2.6791    0.0000 H       1  UNL1        0.0274
     54 H          10.1048    0.6559    0.0000 H       1  UNL1        0.0274
     55 H          10.7176    0.0288    0.0000 H       1  UNL1        0.0274
     56 H          11.3447    0.6416    0.0000 H       1  UNL1        0.0274
     57 H           7.6162   -3.9722    0.0000 H       1  UNL1        0.0660
     58 H           8.2433   -4.5850    0.0000 H       1  UNL1        0.0660
     59 H           8.8561   -3.9579    0.0000 H       1  UNL1        0.0660
@<TRIPOS>BOND
     1     1    10   ar
     2     1    13   ar
     3     2     9    1
     4     2    15    1
     5     3    14    2
     6     4    18    1
     7     4    48    1
     8     5    21    1
     9     5    49    1
    10     6    25    1
    11     6    33    1
    12     7    26    1
    13     7    50    1
    14     8     9    1
    15     8    10   ar
    16     8    14   ar
    17     9    17    1
    18     9    34    1
    19    10    11    1
    20    11    15   ar
    21    11    19   ar
    22    12    13   ar
    23    12    14   ar
    24    12    18   ar
    25    13    16   ar
    26    15    22   ar
    27    16    20    1
    28    16    21   ar
    29    17    24    2
    30    17    35    1
    31    18    23   ar
    32    19    25   ar
    33    19    36    1
    34    20    27    1
    35    20    37    1
    36    20    38    1
    37    21    23   ar
    38    22    26   ar
    39    22    39    1
    40    23    40    1
    41    24    28    1
    42    24    29    1
    43    25    26   ar
    44    27    30    2
    45    27    41    1
    46    28    45    1
    47    28    46    1
    48    28    47    1
    49    29    42    1
    50    29    43    1
    51    29    44    1
    52    30    31    1
    53    30    32    1
    54    31    51    1
    55    31    52    1
    56    31    53    1
    57    32    54    1
    58    32    55    1
    59    32    56    1
    60    33    57    1
    61    33    58    1
    62    33    59    1
