@<TRIPOS>MOLECULE
IMPHY016581
 48 48 0 0 0
SMALL
GASTEIGER

@<TRIPOS>ATOM
      1 O           8.0918    2.4224    0.0000 O.2     1  UNL1       -0.2974
      2 C           5.1350    1.1976    0.0000 C.3     1  UNL1       -0.0527
      3 C           7.4152   -0.7166    0.0000 C.3     1  UNL1       -0.0527
      4 C           5.1350    0.1976    0.0000 C.3     1  UNL1       -0.0530
      5 C           6.4493   -0.4578    0.0000 C.3     1  UNL1       -0.0530
      6 C           6.0010    1.6976    0.0000 C.3     1  UNL1       -0.0464
      7 C           8.2813   -0.2166    0.0000 C.3     1  UNL1       -0.0464
      8 C           4.2690   -0.3024    0.0000 C.3     1  UNL1       -0.0528
      9 C           6.1905   -1.4237    0.0000 C.3     1  UNL1       -0.0528
     10 C           6.8671    1.1976    0.0000 C.3     1  UNL1        0.0058
     11 C           8.5401    0.7493    0.0000 C.3     1  UNL1        0.0058
     12 C           3.4030    0.1976    0.0000 C.3     1  UNL1       -0.0496
     13 C           5.2246   -1.6825    0.0000 C.3     1  UNL1       -0.0496
     14 C           7.8330    1.4564    0.0000 C.2     1  UNL1        0.1334
     15 C           2.5369   -0.3024    0.0000 C.3     1  UNL1       -0.0348
     16 C           4.2690   -1.3024    0.0000 C.3     1  UNL1       -0.0348
     17 C           2.5369   -1.3024    0.0000 C.2     1  UNL1       -0.0879
     18 C           3.4030   -1.8024    0.0000 C.2     1  UNL1       -0.0879
     19 H           4.9230    1.7802    0.0000 H       1  UNL1        0.0265
     20 H           4.5244    1.0900    0.0000 H       1  UNL1        0.0265
     21 H           7.1052   -1.2535    0.0000 H       1  UNL1        0.0265
     22 H           7.8537   -1.1550    0.0000 H       1  UNL1        0.0265
     23 H           5.3471   -0.3850    0.0000 H       1  UNL1        0.0265
     24 H           5.7456    0.3053    0.0000 H       1  UNL1        0.0265
     25 H           6.6098    0.1411    0.0000 H       1  UNL1        0.0265
     26 H           5.8505   -0.2973    0.0000 H       1  UNL1        0.0265
     27 H           6.3996    2.1726    0.0000 H       1  UNL1        0.0269
     28 H           5.6025    2.1726    0.0000 H       1  UNL1        0.0269
     29 H           8.4417   -0.8155    0.0000 H       1  UNL1        0.0269
     30 H           8.9013   -0.2166    0.0000 H       1  UNL1        0.0269
     31 H           3.8705   -0.7773    0.0000 H       1  UNL1        0.0265
     32 H           4.6675   -0.7773    0.0000 H       1  UNL1        0.0265
     33 H           6.2445   -2.0413    0.0000 H       1  UNL1        0.0265
     34 H           6.8082   -1.4777    0.0000 H       1  UNL1        0.0265
     35 H           6.4287    0.7592    0.0000 H       1  UNL1        0.0342
     36 H           7.1771    0.6607    0.0000 H       1  UNL1        0.0342
     37 H           9.1020    0.4873    0.0000 H       1  UNL1        0.0342
     38 H           8.8957    1.2572    0.0000 H       1  UNL1        0.0342
     39 H           3.8015    0.6726    0.0000 H       1  UNL1        0.0268
     40 H           3.0044    0.6726    0.0000 H       1  UNL1        0.0268
     41 H           4.8305   -2.1612    0.0000 H       1  UNL1        0.0268
     42 H           5.5602   -2.2038    0.0000 H       1  UNL1        0.0268
     43 H           2.3249    0.2802    0.0000 H       1  UNL1        0.0307
     44 H           1.9264   -0.4100    0.0000 H       1  UNL1        0.0307
     45 H           4.6198   -0.7912    0.0000 H       1  UNL1        0.0307
     46 H           3.8480   -0.8472    0.0000 H       1  UNL1        0.0307
     47 H           2.0000   -1.6124    0.0000 H       1  UNL1        0.0569
     48 H           3.4030   -2.4224    0.0000 H       1  UNL1        0.0569
@<TRIPOS>BOND
     1     1    14    2
     2     2     4    1
     3     2     6    1
     4     2    19    1
     5     2    20    1
     6     3     5    1
     7     3     7    1
     8     3    21    1
     9     3    22    1
    10     4     8    1
    11     4    23    1
    12     4    24    1
    13     5     9    1
    14     5    25    1
    15     5    26    1
    16     6    10    1
    17     6    27    1
    18     6    28    1
    19     7    11    1
    20     7    29    1
    21     7    30    1
    22     8    12    1
    23     8    31    1
    24     8    32    1
    25     9    13    1
    26     9    33    1
    27     9    34    1
    28    10    14    1
    29    10    35    1
    30    10    36    1
    31    11    14    1
    32    11    37    1
    33    11    38    1
    34    12    15    1
    35    12    39    1
    36    12    40    1
    37    13    16    1
    38    13    41    1
    39    13    42    1
    40    15    17    1
    41    15    43    1
    42    15    44    1
    43    16    18    1
    44    16    45    1
    45    16    46    1
    46    17    18    2
    47    17    47    1
    48    18    48    1
