@<TRIPOS>MOLECULE
IMPHY003318
 30 32 0 0 0
SMALL
GASTEIGER

@<TRIPOS>ATOM
      1 O           7.2901   -1.3576    0.0000 O.3     1  UNL1       -0.4850
      2 O           7.2785    1.7117    0.0000 O.2     1  UNL1       -0.2918
      3 O           3.7702   -1.3576    0.0000 O.2     1  UNL1       -0.4220
      4 O           2.0000   -1.3471    0.0000 O.2     1  UNL1       -0.2452
      5 C           8.1962   -0.8437    0.0000 C.3     1  UNL1        0.1121
      6 C           8.1962    0.1979    0.0000 C.3     1  UNL1        0.0499
      7 C           6.3961    0.1771    0.0000 C.ar    1  UNL1        0.0599
      8 C           7.2901    0.7117    0.0000 C.2     1  UNL1        0.1704
      9 C           6.3961   -0.8229    0.0000 C.ar    1  UNL1        0.1353
     10 C           9.1962   -0.8476    0.0000 C.3     1  UNL1       -0.0248
     11 C           8.6928   -1.7117    0.0000 C.3     1  UNL1       -0.0248
     12 C           5.5301    0.6771    0.0000 C.ar    1  UNL1       -0.0371
     13 C           5.5301   -1.3229    0.0000 C.ar    1  UNL1        0.0238
     14 C           4.6641    0.1771    0.0000 C.ar    1  UNL1        0.0185
     15 C           4.6641   -0.8229    0.0000 C.ar    1  UNL1        0.1426
     16 C           3.7702    0.7117    0.0000 C.ar    1  UNL1       -0.0443
     17 C           2.8641    0.1979    0.0000 C.ar    1  UNL1        0.0236
     18 C           2.8641   -0.8437    0.0000 C.ar    1  UNL1        0.3372
     19 H           8.8070    0.0918    0.0000 H       1  UNL1        0.0384
     20 H           8.4052    0.7816    0.0000 H       1  UNL1        0.0384
     21 H           9.1938   -1.4676    0.0000 H       1  UNL1        0.0268
     22 H           9.8162   -0.8500    0.0000 H       1  UNL1        0.0268
     23 H           9.1985   -0.2276    0.0000 H       1  UNL1        0.0268
     24 H           8.1547   -2.0196    0.0000 H       1  UNL1        0.0268
     25 H           9.0008   -2.2498    0.0000 H       1  UNL1        0.0268
     26 H           9.2310   -1.4038    0.0000 H       1  UNL1        0.0268
     27 H           5.5301    1.2971    0.0000 H       1  UNL1        0.0633
     28 H           5.5301   -1.9429    0.0000 H       1  UNL1        0.0691
     29 H           3.7773    1.3317    0.0000 H       1  UNL1        0.0627
     30 H           2.3284    0.5100    0.0000 H       1  UNL1        0.0689
@<TRIPOS>BOND
     1     1     5    1
     2     1     9    1
     3     2     8    2
     4     3    15   ar
     5     3    18   ar
     6     4    18    2
     7     5     6    1
     8     5    10    1
     9     5    11    1
    10     6     8    1
    11     6    19    1
    12     6    20    1
    13     7     8    1
    14     7     9   ar
    15     7    12   ar
    16     9    13   ar
    17    10    21    1
    18    10    22    1
    19    10    23    1
    20    11    24    1
    21    11    25    1
    22    11    26    1
    23    12    14   ar
    24    12    27    1
    25    13    15   ar
    26    13    28    1
    27    14    15   ar
    28    14    16   ar
    29    16    17   ar
    30    16    29    1
    31    17    18   ar
    32    17    30    1
