@<TRIPOS>MOLECULE
IMPHY001432
 93 97 0 0 0
SMALL
GASTEIGER

@<TRIPOS>ATOM
      1 O           8.9942   -1.5256    0.0000 O.3     1  UNL1       -0.3770
      2 O           5.5138    0.5090    0.0000 O.3     1  UNL1       -0.4535
      3 O           8.9942   -2.5256    0.0000 O.3     1  UNL1       -0.4582
      4 O           6.3744    1.0058    0.0000 O.3     1  UNL1       -0.4574
      5 O           3.7320   -0.5015    0.0000 O.3     1  UNL1       -0.4551
      6 O           3.7320   -2.5498    0.0000 O.3     1  UNL1       -0.3875
      7 O          10.0381   -0.5304    0.0000 O.2     1  UNL1       -0.2933
      8 O           3.7818    0.5290    0.0000 O.2     1  UNL1       -0.2449
      9 O           8.1282   -4.0256    0.0000 O.2     1  UNL1       -0.2512
     10 O           6.0099    2.9414    0.0000 O.2     1  UNL1       -0.2450
     11 O           2.8602   -1.9981    0.0000 O.2     1  UNL1       -0.2512
     12 C           6.3961   -1.0256    0.0000 C.3     1  UNL1        0.0214
     13 C           6.3961   -2.0256    0.0000 C.3     1  UNL1       -0.0206
     14 C           7.2622   -0.5256    0.0000 C.3     1  UNL1        0.0446
     15 C           5.5022   -2.5603    0.0000 C.3     1  UNL1       -0.0017
     16 C           8.1282   -1.0256    0.0000 C.3     1  UNL1        0.1676
     17 C           5.5022   -0.4910    0.0000 C.3     1  UNL1        0.1486
     18 C           7.2622   -2.5256    0.0000 C.3     1  UNL1       -0.0084
     19 C           8.1282   -2.0256    0.0000 C.3     1  UNL1        0.1392
     20 C           7.2461    0.5159    0.0000 C.3     1  UNL1        0.1112
     21 C           4.5961   -2.0465    0.0000 C.3     1  UNL1        0.1010
     22 C           4.5961   -1.0048    0.0000 C.3     1  UNL1        0.1663
     23 C           6.3961   -0.0256    0.0000 C.3     1  UNL1       -0.0553
     24 C           9.0382   -0.5188    0.0000 C.2     1  UNL1        0.1783
     25 C           8.1441    1.0436    0.0000 C.3     1  UNL1        0.0004
     26 C           9.0462    0.5228    0.0000 C.3     1  UNL1        0.0503
     27 C           5.0122   -3.4320    0.0000 C.3     1  UNL1       -0.0571
     28 C           6.0122   -3.4205    0.0000 C.3     1  UNL1       -0.0571
     29 C          10.0462    0.5189    0.0000 C.3     1  UNL1       -0.0491
     30 C           9.5496    1.3869    0.0000 C.2     1  UNL1       -0.0780
     31 C           4.6536    1.0189    0.0000 C.2     1  UNL1        0.3396
     32 C           8.9942   -3.5256    0.0000 C.2     1  UNL1        0.3043
     33 C           6.3628    2.0058    0.0000 C.2     1  UNL1        0.3395
     34 C           2.8641   -0.9982    0.0000 C.2     1  UNL1        0.3044
     35 C          10.5495    1.3830    0.0000 C.2     1  UNL1       -0.1017
     36 C           4.0197    1.7924    0.0000 C.ar    1  UNL1        0.0590
     37 C           9.8602   -4.0256    0.0000 C.3     1  UNL1        0.0332
     38 C           2.0000   -0.4948    0.0000 C.3     1  UNL1        0.0332
     39 C           7.2230    2.5157    0.0000 C.ar    1  UNL1        0.0590
     40 C           4.3726    2.7280    0.0000 C.ar    1  UNL1       -0.0478
     41 C           3.0329    1.6301    0.0000 C.ar    1  UNL1       -0.0478
     42 C           8.0947    2.0258    0.0000 C.ar    1  UNL1       -0.0478
     43 C           7.2114    3.5157    0.0000 C.ar    1  UNL1       -0.0478
     44 C           3.7387    3.5015    0.0000 C.ar    1  UNL1       -0.0610
     45 C           2.3990    2.4035    0.0000 C.ar    1  UNL1       -0.0610
     46 C           8.9549    2.5358    0.0000 C.ar    1  UNL1       -0.0610
     47 C           8.0716    4.0256    0.0000 C.ar    1  UNL1       -0.0610
     48 C           2.7519    3.3392    0.0000 C.ar    1  UNL1       -0.0617
     49 C           8.9434    3.5357    0.0000 C.ar    1  UNL1       -0.0617
     50 H           6.4027   -2.8756    0.0000 H       1  UNL1        0.0314
     51 H           7.9950   -0.0950    0.0000 H       1  UNL1        0.0377
     52 H           4.9683   -0.1758    0.0000 H       1  UNL1        0.0778
     53 H           6.8636   -3.0006    0.0000 H       1  UNL1        0.0305
     54 H           7.6607   -3.0006    0.0000 H       1  UNL1        0.0305
     55 H           8.1282   -2.6456    0.0000 H       1  UNL1        0.0768
     56 H           7.2401    1.1358    0.0000 H       1  UNL1        0.0738
     57 H           4.0586   -1.7375    0.0000 H       1  UNL1        0.0637
     58 H           4.5997   -0.3848    0.0000 H       1  UNL1        0.0798
     59 H           7.0161   -0.0256    0.0000 H       1  UNL1        0.0236
     60 H           6.3961    0.5944    0.0000 H       1  UNL1        0.0236
     61 H           5.7761   -0.0256    0.0000 H       1  UNL1        0.0236
     62 H           8.5414    1.5196    0.0000 H       1  UNL1        0.0313
     63 H           7.7432    1.5165    0.0000 H       1  UNL1        0.0313
     64 H           4.4718   -3.1283    0.0000 H       1  UNL1        0.0236
     65 H           4.7085   -3.9725    0.0000 H       1  UNL1        0.0236
     66 H           5.5527   -3.7358    0.0000 H       1  UNL1        0.0236
     67 H           5.4789   -3.7367    0.0000 H       1  UNL1        0.0236
     68 H           6.3284   -3.9538    0.0000 H       1  UNL1        0.0236
     69 H           6.5455   -3.1043    0.0000 H       1  UNL1        0.0236
     70 H           9.6142   -1.5256    0.0000 H       1  UNL1        0.2109
     71 H          10.0438   -0.1010    0.0000 H       1  UNL1        0.0242
     72 H          10.6662    0.5166    0.0000 H       1  UNL1        0.0242
     73 H          10.0486    1.1389    0.0000 H       1  UNL1        0.0242
     74 H           3.7344   -3.1698    0.0000 H       1  UNL1        0.2100
     75 H           9.2416    1.9250    0.0000 H       1  UNL1        0.0576
     76 H          10.8575    0.8449    0.0000 H       1  UNL1        0.0532
     77 H          10.8616    1.9188    0.0000 H       1  UNL1        0.0532
     78 H           9.5502   -4.5626    0.0000 H       1  UNL1        0.0342
     79 H          10.3972   -4.3356    0.0000 H       1  UNL1        0.0342
     80 H          10.1702   -3.4887    0.0000 H       1  UNL1        0.0342
     81 H           2.3121    0.0409    0.0000 H       1  UNL1        0.0342
     82 H           1.4643   -0.1828    0.0000 H       1  UNL1        0.0342
     83 H           1.6879   -1.0306    0.0000 H       1  UNL1        0.0342
     84 H           4.9843    2.8286    0.0000 H       1  UNL1        0.0626
     85 H           2.8142    1.0500    0.0000 H       1  UNL1        0.0626
     86 H           8.1019    1.4058    0.0000 H       1  UNL1        0.0626
     87 H           6.6709    3.8194    0.0000 H       1  UNL1        0.0626
     88 H           3.9574    4.0816    0.0000 H       1  UNL1        0.0618
     89 H           1.7873    2.3029    0.0000 H       1  UNL1        0.0618
     90 H           9.4954    2.2320    0.0000 H       1  UNL1        0.0618
     91 H           8.0644    4.6456    0.0000 H       1  UNL1        0.0618
     92 H           2.3589    3.8187    0.0000 H       1  UNL1        0.0618
     93 H           9.4767    3.8519    0.0000 H       1  UNL1        0.0618
@<TRIPOS>BOND
     1    16     1    1
     2     1    70    1
     3    17     2    1
     4     2    31    1
     5    19     3    1
     6     3    32    1
     7    20     4    1
     8     4    33    1
     9    22     5    1
    10     5    34    1
    11    21     6    1
    12     6    74    1
    13     7    24    2
    14     8    31    2
    15     9    32    2
    16    10    33    2
    17    11    34    2
    18    12    13    1
    19    12    14    1
    20    12    17    1
    21    12    23    1
    22    13    15    1
    23    13    18    1
    24    13    50    1
    25    14    16    1
    26    14    20    1
    27    14    51    1
    28    15    21    1
    29    15    27    1
    30    15    28    1
    31    16    19    1
    32    16    24    1
    33    17    22    1
    34    17    52    1
    35    18    19    1
    36    18    53    1
    37    18    54    1
    38    19    55    1
    39    20    25    1
    40    20    56    1
    41    21    22    1
    42    21    57    1
    43    22    58    1
    44    23    59    1
    45    23    60    1
    46    23    61    1
    47    24    26    1
    48    25    26    1
    49    25    62    1
    50    25    63    1
    51    26    29    1
    52    26    30    1
    53    27    64    1
    54    27    65    1
    55    27    66    1
    56    28    67    1
    57    28    68    1
    58    28    69    1
    59    29    71    1
    60    29    72    1
    61    29    73    1
    62    30    35    2
    63    30    75    1
    64    31    36    1
    65    32    37    1
    66    33    39    1
    67    34    38    1
    68    35    76    1
    69    35    77    1
    70    36    40   ar
    71    36    41   ar
    72    37    78    1
    73    37    79    1
    74    37    80    1
    75    38    81    1
    76    38    82    1
    77    38    83    1
    78    39    42   ar
    79    39    43   ar
    80    40    44   ar
    81    40    84    1
    82    41    45   ar
    83    41    85    1
    84    42    46   ar
    85    42    86    1
    86    43    47   ar
    87    43    87    1
    88    44    48   ar
    89    44    88    1
    90    45    48   ar
    91    45    89    1
    92    46    49   ar
    93    46    90    1
    94    47    49   ar
    95    47    91    1
    96    48    92    1
    97    49    93    1
