@<TRIPOS>MOLECULE
IMPHY013390
 50 52 0 0 0
SMALL
GASTEIGER

@<TRIPOS>ATOM
      1 O           5.5301   -2.0000    0.0000 O.2     1  UNL1       -0.4618
      2 O           9.8602    1.5000    0.0000 O.3     1  UNL1       -0.4912
      3 O           8.1282    2.5000    0.0000 O.3     1  UNL1       -0.4914
      4 O           5.5301    1.0000    0.0000 O.2     1  UNL1       -0.2863
      5 O           3.7817    1.0346    0.0000 O.3     1  UNL1       -0.5058
      6 O           2.0000   -2.0242    0.0000 O.3     1  UNL1       -0.5065
      7 C           8.9942   -0.0000    0.0000 C.ar    1  UNL1        0.0022
      8 C           7.2622    0.0000    0.0000 C.ar    1  UNL1       -0.0073
      9 C           6.3961   -0.5000    0.0000 C.ar    1  UNL1        0.0645
     10 C           8.1282   -0.5000    0.0000 C.ar    1  UNL1       -0.0466
     11 C           9.8602   -0.5000    0.0000 C.3     1  UNL1       -0.0056
     12 C           8.9942    1.0000    0.0000 C.ar    1  UNL1        0.1650
     13 C           7.2622    1.0000    0.0000 C.ar    1  UNL1       -0.0084
     14 C           8.1282    1.5000    0.0000 C.ar    1  UNL1        0.1623
     15 C           4.6641   -0.5000    0.0000 C.ar    1  UNL1        0.1060
     16 C           5.5301    0.0000    0.0000 C.ar    1  UNL1        0.2037
     17 C           4.6641   -1.5000    0.0000 C.ar    1  UNL1        0.1454
     18 C           6.3961   -1.5000    0.0000 C.ar    1  UNL1        0.1038
     19 C           9.8602   -1.5000    0.0000 C.2     1  UNL1       -0.0809
     20 C           3.7702    0.0347    0.0000 C.ar    1  UNL1        0.1347
     21 C          10.7263   -2.0000    0.0000 C.2     1  UNL1       -0.0793
     22 C           3.7702   -2.0347    0.0000 C.ar    1  UNL1        0.0231
     23 C           2.8641   -0.4792    0.0000 C.ar    1  UNL1        0.0223
     24 C           2.8641   -1.5208    0.0000 C.ar    1  UNL1        0.1239
     25 C          10.7263   -3.0000    0.0000 C.3     1  UNL1       -0.0440
     26 C          11.5923   -1.5000    0.0000 C.3     1  UNL1       -0.0440
     27 C           9.8602    2.5000    0.0000 C.3     1  UNL1        0.0790
     28 C           7.2622    3.0000    0.0000 C.3     1  UNL1        0.0790
     29 H           8.1282   -1.1200    0.0000 H       1  UNL1        0.0628
     30 H          10.4708   -0.6077    0.0000 H       1  UNL1        0.0357
     31 H          10.0723    0.0826    0.0000 H       1  UNL1        0.0357
     32 H           6.7252    1.3100    0.0000 H       1  UNL1        0.0661
     33 H           6.9331   -1.8100    0.0000 H       1  UNL1        0.1037
     34 H           9.3233   -1.8100    0.0000 H       1  UNL1        0.0575
     35 H           3.7773   -2.6546    0.0000 H       1  UNL1        0.0691
     36 H           2.3284   -0.1671    0.0000 H       1  UNL1        0.0691
     37 H          10.1063   -3.0000    0.0000 H       1  UNL1        0.0274
     38 H          10.7263   -3.6200    0.0000 H       1  UNL1        0.0274
     39 H          11.3463   -3.0000    0.0000 H       1  UNL1        0.0274
     40 H          11.9023   -2.0369    0.0000 H       1  UNL1        0.0274
     41 H          12.1292   -1.1900    0.0000 H       1  UNL1        0.0274
     42 H          11.2823   -0.9631    0.0000 H       1  UNL1        0.0274
     43 H          10.4803    2.5000    0.0000 H       1  UNL1        0.0660
     44 H           9.8602    3.1200    0.0000 H       1  UNL1        0.0660
     45 H           9.2402    2.5000    0.0000 H       1  UNL1        0.0660
     46 H           7.5722    3.5369    0.0000 H       1  UNL1        0.0660
     47 H           6.7252    3.3100    0.0000 H       1  UNL1        0.0660
     48 H           6.9522    2.4631    0.0000 H       1  UNL1        0.0660
     49 H           3.2484    1.3508    0.0000 H       1  UNL1        0.2922
     50 H           2.0024   -2.6441    0.0000 H       1  UNL1        0.2921
@<TRIPOS>BOND
     1     1    17   ar
     2     1    18   ar
     3     2    12    1
     4     2    27    1
     5     3    14    1
     6     3    28    1
     7     4    16    2
     8     5    20    1
     9     5    49    1
    10     6    24    1
    11     6    50    1
    12     7    10   ar
    13     7    11    1
    14     7    12   ar
    15     8     9    1
    16     8    10   ar
    17     8    13   ar
    18     9    16   ar
    19     9    18   ar
    20    10    29    1
    21    11    19    1
    22    11    30    1
    23    11    31    1
    24    12    14   ar
    25    13    14   ar
    26    13    32    1
    27    15    16   ar
    28    15    17   ar
    29    15    20   ar
    30    17    22   ar
    31    18    33    1
    32    19    21    2
    33    19    34    1
    34    20    23   ar
    35    21    25    1
    36    21    26    1
    37    22    24   ar
    38    22    35    1
    39    23    24   ar
    40    23    36    1
    41    25    37    1
    42    25    38    1
    43    25    39    1
    44    26    40    1
    45    26    41    1
    46    26    42    1
    47    27    43    1
    48    27    44    1
    49    27    45    1
    50    28    46    1
    51    28    47    1
    52    28    48    1
