@<TRIPOS>MOLECULE
IMPHY010176
 80 85 0 0 0
SMALL
GASTEIGER

@<TRIPOS>ATOM
      1 O          11.3900    2.3583    0.0000 O.3     1  UNL1       -0.3877
      2 O           6.0010    3.4314    0.0000 O.3     1  UNL1       -0.3480
      3 O          13.5826   -2.2128    0.0000 O.3     1  UNL1       -0.4571
      4 O           4.2690    3.4314    0.0000 O.3     1  UNL1       -0.3456
      5 O          12.3199   -3.4702    0.0000 O.2     1  UNL1       -0.2456
      6 O           4.2690    0.4314    0.0000 O.3     1  UNL1       -0.3890
      7 O           2.5369    1.4314    0.0000 O.3     1  UNL1       -0.3867
      8 C          11.3862    1.3583    0.0000 C.3     1  UNL1        0.0751
      9 C          10.5221    1.8616    0.0000 C.3     1  UNL1       -0.0083
     10 C           9.6541    1.3649    0.0000 C.3     1  UNL1       -0.0299
     11 C          11.3823    0.3583    0.0000 C.3     1  UNL1        0.0036
     12 C           8.7461    1.8753    0.0000 C.3     1  UNL1       -0.0259
     13 C           8.7421    2.9169    0.0000 C.3     1  UNL1       -0.0330
     14 C           9.6503    0.3650    0.0000 C.3     1  UNL1       -0.0488
     15 C          10.5144   -0.1384    0.0000 C.3     1  UNL1       -0.0442
     16 C          12.3274    0.0499    0.0000 C.3     1  UNL1       -0.0081
     17 C          10.5422    2.9030    0.0000 C.3     1  UNL1       -0.0470
     18 C          12.3336    1.6594    0.0000 C.3     1  UNL1       -0.0226
     19 C           9.6462    3.4342    0.0000 C.3     1  UNL1       -0.0493
     20 C          12.9141    0.8524    0.0000 C.3     1  UNL1       -0.0432
     21 C           7.8171    1.3148    0.0000 C.3     1  UNL1       -0.0448
     22 C           7.8088    3.4702    0.0000 C.3     1  UNL1       -0.0232
     23 C          11.3785   -0.6417    0.0000 C.3     1  UNL1       -0.0564
     24 C           8.7500    0.8753    0.0000 C.3     1  UNL1       -0.0590
     25 C           6.8712    1.8464    0.0000 C.3     1  UNL1       -0.0260
     26 C           6.8671    2.9314    0.0000 C.3     1  UNL1        0.0620
     27 C          12.6344   -0.9018    0.0000 C.2     1  UNL1       -0.0222
     28 C          13.5847   -1.2128    0.0000 C.3     1  UNL1        0.1147
     29 C          12.0448   -1.7096    0.0000 C.2     1  UNL1        0.0252
     30 C           5.1350    2.9314    0.0000 C.3     1  UNL1        0.1624
     31 C          12.6309   -2.5198    0.0000 C.2     1  UNL1        0.3323
     32 C           5.1350    1.9314    0.0000 C.3     1  UNL1        0.0270
     33 C           4.2690    1.4314    0.0000 C.3     1  UNL1        0.0881
     34 C           3.4030    2.9314    0.0000 C.3     1  UNL1        0.0871
     35 C           3.4030    1.9314    0.0000 C.3     1  UNL1        0.1070
     36 C           2.5369    3.4314    0.0000 C.3     1  UNL1       -0.0361
     37 H          11.2631    2.2781    0.0000 H       1  UNL1        0.0331
     38 H          10.3886    0.9371    0.0000 H       1  UNL1        0.0310
     39 H           8.7486    3.7669    0.0000 H       1  UNL1        0.0307
     40 H           9.0401    0.4750    0.0000 H       1  UNL1        0.0268
     41 H           9.4360   -0.2168    0.0000 H       1  UNL1        0.0268
     42 H          10.1140   -0.6118    0.0000 H       1  UNL1        0.0272
     43 H          10.9111   -0.6149    0.0000 H       1  UNL1        0.0272
     44 H          12.9395   -0.0487    0.0000 H       1  UNL1        0.0353
     45 H          11.1509    2.7852    0.0000 H       1  UNL1        0.0269
     46 H          10.7624    3.4826    0.0000 H       1  UNL1        0.0269
     47 H          12.8721    1.9665    0.0000 H       1  UNL1        0.0293
     48 H          12.0847    2.2272    0.0000 H       1  UNL1        0.0293
     49 H          10.0489    3.9056    0.0000 H       1  UNL1        0.0268
     50 H           9.2507    3.9118    0.0000 H       1  UNL1        0.0268
     51 H          13.3733    0.4359    0.0000 H       1  UNL1        0.0272
     52 H          13.3765    1.2653    0.0000 H       1  UNL1        0.0272
     53 H           7.4253    0.8343    0.0000 H       1  UNL1        0.0271
     54 H           8.2235    0.8466    0.0000 H       1  UNL1        0.0271
     55 H           8.2116    3.9416    0.0000 H       1  UNL1        0.0293
     56 H           7.4133    3.9477    0.0000 H       1  UNL1        0.0293
     57 H          10.7585   -0.6393    0.0000 H       1  UNL1        0.0236
     58 H          11.3761   -1.2617    0.0000 H       1  UNL1        0.0236
     59 H          11.9985   -0.6441    0.0000 H       1  UNL1        0.0236
     60 H           8.1299    0.8729    0.0000 H       1  UNL1        0.0235
     61 H           8.7523    0.2553    0.0000 H       1  UNL1        0.0235
     62 H           9.3699    0.8777    0.0000 H       1  UNL1        0.0235
     63 H           6.2600    1.9501    0.0000 H       1  UNL1        0.0290
     64 H           6.6644    1.2619    0.0000 H       1  UNL1        0.0290
     65 H           6.8683    3.5514    0.0000 H       1  UNL1        0.0597
     66 H          11.9282    2.6662    0.0000 H       1  UNL1        0.2102
     67 H          14.2012   -1.2790    0.0000 H       1  UNL1        0.0746
     68 H          13.7149   -0.6067    0.0000 H       1  UNL1        0.0746
     69 H          11.4248   -1.7083    0.0000 H       1  UNL1        0.0689
     70 H           5.1350    3.5514    0.0000 H       1  UNL1        0.0910
     71 H           5.3471    1.3488    0.0000 H       1  UNL1        0.0340
     72 H           5.7456    2.0390    0.0000 H       1  UNL1        0.0340
     73 H           4.8059    1.1214    0.0000 H       1  UNL1        0.0621
     74 H           3.4030    3.5514    0.0000 H       1  UNL1        0.0621
     75 H           3.4030    1.3114    0.0000 H       1  UNL1        0.0645
     76 H           2.8469    3.9683    0.0000 H       1  UNL1        0.0255
     77 H           2.0000    3.7414    0.0000 H       1  UNL1        0.0255
     78 H           2.2269    2.8944    0.0000 H       1  UNL1        0.0255
     79 H           3.7320    0.1214    0.0000 H       1  UNL1        0.2099
     80 H           2.0000    1.7414    0.0000 H       1  UNL1        0.2100
@<TRIPOS>BOND
     1     8     1    1
     2     1    66    1
     3    26     2    1
     4    30     2    1
     5     3    28    1
     6     3    31    1
     7     4    30    1
     8     4    34    1
     9     5    31    2
    10    33     6    1
    11     6    79    1
    12    35     7    1
    13     7    80    1
    14     8     9    1
    15     8    11    1
    16     8    18    1
    17     9    10    1
    18     9    17    1
    19     9    37    1
    20    10    12    1
    21    10    14    1
    22    10    38    1
    23    11    15    1
    24    11    16    1
    25    11    23    1
    26    12    13    1
    27    12    21    1
    28    12    24    1
    29    13    19    1
    30    13    22    1
    31    13    39    1
    32    14    15    1
    33    14    40    1
    34    14    41    1
    35    15    42    1
    36    15    43    1
    37    16    20    1
    38    16    27    1
    39    16    44    1
    40    17    19    1
    41    17    45    1
    42    17    46    1
    43    18    20    1
    44    18    47    1
    45    18    48    1
    46    19    49    1
    47    19    50    1
    48    20    51    1
    49    20    52    1
    50    21    25    1
    51    21    53    1
    52    21    54    1
    53    22    26    1
    54    22    55    1
    55    22    56    1
    56    23    57    1
    57    23    58    1
    58    23    59    1
    59    24    60    1
    60    24    61    1
    61    24    62    1
    62    25    26    1
    63    25    63    1
    64    25    64    1
    65    26    65    1
    66    27    28    1
    67    27    29    2
    68    28    67    1
    69    28    68    1
    70    29    31    1
    71    29    69    1
    72    30    32    1
    73    30    70    1
    74    32    33    1
    75    32    71    1
    76    32    72    1
    77    33    35    1
    78    33    73    1
    79    34    35    1
    80    34    36    1
    81    34    74    1
    82    35    75    1
    83    36    76    1
    84    36    77    1
    85    36    78    1
