@<TRIPOS>MOLECULE
IMPHY012491
 56 58 0 0 0
SMALL
GASTEIGER

@<TRIPOS>ATOM
      1 O           7.4260    0.1203    0.0000 O.3     1  UNL1       -0.4872
      2 O           3.9061    0.1203    0.0000 O.3     1  UNL1       -0.4811
      3 O           5.6660    3.1550    0.0000 O.3     1  UNL1       -0.5052
      4 O           7.4144    3.1896    0.0000 O.2     1  UNL1       -0.2914
      5 O           7.3981   -2.8450    0.0000 O.3     1  UNL1       -0.4806
      6 O           5.6660   -2.8450    0.0000 O.2     1  UNL1       -0.2510
      7 C           5.6660   -0.8450    0.0000 C.3     1  UNL1        0.0012
      8 C           5.6660    0.1550    0.0000 C.ar    1  UNL1        0.0410
      9 C           6.5320    0.6550    0.0000 C.ar    1  UNL1        0.1419
     10 C           8.3321    1.6758    0.0000 C.3     1  UNL1        0.0562
     11 C           8.3321    0.6342    0.0000 C.3     1  UNL1        0.1070
     12 C           4.8000    0.6550    0.0000 C.ar    1  UNL1        0.1393
     13 C           6.5320    1.6550    0.0000 C.ar    1  UNL1        0.1018
     14 C           4.8000   -1.3450    0.0000 C.3     1  UNL1       -0.0457
     15 C           4.8000    1.6550    0.0000 C.ar    1  UNL1        0.0591
     16 C           7.4260    2.1897    0.0000 C.2     1  UNL1        0.1765
     17 C           3.0000    0.6342    0.0000 C.3     1  UNL1        0.1235
     18 C           6.5320   -1.3450    0.0000 C.3     1  UNL1        0.0518
     19 C           5.6660    2.1550    0.0000 C.ar    1  UNL1        0.1415
     20 C           4.8000   -2.3450    0.0000 C.3     1  UNL1       -0.0553
     21 C           9.1962    2.1792    0.0000 C.3     1  UNL1       -0.0519
     22 C           3.9061    2.1897    0.0000 C.2     1  UNL1       -0.0478
     23 C           3.0000    1.6758    0.0000 C.2     1  UNL1       -0.0408
     24 C           9.1962    0.1308    0.0000 C.3     1  UNL1       -0.0271
     25 C           2.0000    0.6303    0.0000 C.3     1  UNL1       -0.0215
     26 C           2.5033   -0.2338    0.0000 C.3     1  UNL1       -0.0215
     27 C           6.5320   -2.3450    0.0000 C.2     1  UNL1        0.3053
     28 C           3.9340   -2.8450    0.0000 C.3     1  UNL1       -0.0653
     29 H           5.1291   -0.5350    0.0000 H       1  UNL1        0.0356
     30 H           8.3285    2.2958    0.0000 H       1  UNL1        0.0414
     31 H           8.3285    0.0142    0.0000 H       1  UNL1        0.0737
     32 H           4.5880   -0.7624    0.0000 H       1  UNL1        0.0271
     33 H           4.1894   -1.4527    0.0000 H       1  UNL1        0.0271
     34 H           7.1426   -1.4527    0.0000 H       1  UNL1        0.0383
     35 H           6.7441   -0.7624    0.0000 H       1  UNL1        0.0383
     36 H           5.0120   -2.9276    0.0000 H       1  UNL1        0.0263
     37 H           5.4106   -2.2373    0.0000 H       1  UNL1        0.0263
     38 H           9.5082    1.6434    0.0000 H       1  UNL1        0.0238
     39 H           9.7319    2.4912    0.0000 H       1  UNL1        0.0238
     40 H           8.8841    2.7149    0.0000 H       1  UNL1        0.0238
     41 H           3.9132    2.8096    0.0000 H       1  UNL1        0.0624
     42 H           2.4643    1.9879    0.0000 H       1  UNL1        0.0611
     43 H           8.8841   -0.4049    0.0000 H       1  UNL1        0.0265
     44 H           9.7319   -0.1812    0.0000 H       1  UNL1        0.0265
     45 H           9.5082    0.6666    0.0000 H       1  UNL1        0.0265
     46 H           1.9976    1.2503    0.0000 H       1  UNL1        0.0271
     47 H           1.3800    0.6279    0.0000 H       1  UNL1        0.0271
     48 H           2.0024    0.0103    0.0000 H       1  UNL1        0.0271
     49 H           1.9652    0.0742    0.0000 H       1  UNL1        0.0271
     50 H           2.1954   -0.7719    0.0000 H       1  UNL1        0.0271
     51 H           3.0415   -0.5417    0.0000 H       1  UNL1        0.0271
     52 H           3.6240   -2.3081    0.0000 H       1  UNL1        0.0230
     53 H           3.3970   -3.1550    0.0000 H       1  UNL1        0.0230
     54 H           4.2440   -3.3819    0.0000 H       1  UNL1        0.0230
     55 H           5.1291    3.4650    0.0000 H       1  UNL1        0.2922
     56 H           7.3981   -3.4650    0.0000 H       1  UNL1        0.2951
@<TRIPOS>BOND
     1     1     9    1
     2     1    11    1
     3     2    12    1
     4     2    17    1
     5     3    19    1
     6     3    55    1
     7     4    16    2
     8     5    27    1
     9     5    56    1
    10     6    27    2
    11     7     8    1
    12     7    14    1
    13     7    18    1
    14     7    29    1
    15     8     9   ar
    16     8    12   ar
    17     9    13   ar
    18    10    11    1
    19    10    16    1
    20    10    21    1
    21    10    30    1
    22    11    24    1
    23    11    31    1
    24    12    15   ar
    25    13    16    1
    26    13    19   ar
    27    14    20    1
    28    14    32    1
    29    14    33    1
    30    15    19   ar
    31    15    22    1
    32    17    23    1
    33    17    25    1
    34    17    26    1
    35    18    27    1
    36    18    34    1
    37    18    35    1
    38    20    28    1
    39    20    36    1
    40    20    37    1
    41    21    38    1
    42    21    39    1
    43    21    40    1
    44    22    23    2
    45    22    41    1
    46    23    42    1
    47    24    43    1
    48    24    44    1
    49    24    45    1
    50    25    46    1
    51    25    47    1
    52    25    48    1
    53    26    49    1
    54    26    50    1
    55    26    51    1
    56    28    52    1
    57    28    53    1
    58    28    54    1
