@<TRIPOS>MOLECULE
IMPHY005401
 120 126 0 0 0
SMALL
GASTEIGER

@<TRIPOS>ATOM
      1 O           8.0622   -2.3970    0.0000 O.3     1  UNL1       -0.3449
      2 O           6.3671    1.7932    0.0000 O.2     1  UNL1       -0.2923
      3 O           6.3301   -2.3970    0.0000 O.3     1  UNL1       -0.3315
      4 O           7.0698    8.1749    0.0000 O.3     1  UNL1       -0.4802
      5 O           5.5834    7.2858    0.0000 O.2     1  UNL1       -0.2504
      6 O           8.0622   -4.3970    0.0000 O.3     1  UNL1       -0.3841
      7 O           6.3301   -5.3970    0.0000 O.3     1  UNL1       -0.3400
      8 O           4.5981   -4.3970    0.0000 O.3     1  UNL1       -0.3860
      9 O           4.5981   -1.3970    0.0000 O.3     1  UNL1       -0.4788
     10 O           3.7320   -2.8970    0.0000 O.2     1  UNL1       -0.2480
     11 O           4.5981   -5.3970    0.0000 O.3     1  UNL1       -0.3315
     12 O           6.3301   -7.3970    0.0000 O.3     1  UNL1       -0.3841
     13 O           4.5981   -8.3970    0.0000 O.3     1  UNL1       -0.3864
     14 O           2.8660   -7.3970    0.0000 O.3     1  UNL1       -0.3860
     15 O           2.8660   -4.3970    0.0000 O.3     1  UNL1       -0.4788
     16 O           2.0000   -5.8970    0.0000 O.2     1  UNL1       -0.2480
     17 C           8.9632    2.3032    0.0000 C.3     1  UNL1       -0.0127
     18 C           8.0871    0.7583    0.0000 C.3     1  UNL1       -0.0182
     19 C           8.0992    1.7999    0.0000 C.3     1  UNL1        0.0333
     20 C           8.9594    3.3032    0.0000 C.3     1  UNL1       -0.0043
     21 C           8.9872    0.2340    0.0000 C.3     1  UNL1       -0.0274
     22 C           9.8752    1.7999    0.0000 C.3     1  UNL1       -0.0459
     23 C           8.9997   -0.8509    0.0000 C.3     1  UNL1       -0.0052
     24 C           9.8872    0.7583    0.0000 C.3     1  UNL1       -0.0486
     25 C           8.0914    3.7999    0.0000 C.2     1  UNL1       -0.0562
     26 C           8.0714    4.8413    0.0000 C.3     1  UNL1       -0.0126
     27 C           8.9674    5.3725    0.0000 C.3     1  UNL1       -0.0254
     28 C           9.8674    3.8136    0.0000 C.3     1  UNL1       -0.0429
     29 C           7.1372    0.2340    0.0000 C.3     1  UNL1       -0.0443
     30 C           9.8714    4.8552    0.0000 C.3     1  UNL1       -0.0463
     31 C           8.0622   -1.3970    0.0000 C.3     1  UNL1        0.0672
     32 C           7.2312    2.2966    0.0000 C.2     1  UNL1        0.1602
     33 C           9.9474    2.4807    0.0000 C.3     1  UNL1       -0.0581
     34 C           7.1246   -0.8509    0.0000 C.3     1  UNL1       -0.0255
     35 C           7.2230    1.2617    0.0000 C.3     1  UNL1       -0.0586
     36 C           9.9448    3.1334    0.0000 C.3     1  UNL1       -0.0553
     37 C           7.2274    3.2965    0.0000 C.2     1  UNL1       -0.0188
     38 C           7.1174    5.3583    0.0000 C.3     1  UNL1       -0.0304
     39 C           8.9715    6.4575    0.0000 C.3     1  UNL1       -0.0461
     40 C           7.0965    6.4431    0.0000 C.3     1  UNL1        0.0654
     41 C           9.9997   -0.8432    0.0000 C.3     1  UNL1       -0.0572
     42 C           9.5064   -1.7130    0.0000 C.3     1  UNL1       -0.0572
     43 C           8.0298    6.9964    0.0000 C.3     1  UNL1       -0.0370
     44 C           9.8276    5.8825    0.0000 C.3     1  UNL1       -0.0590
     45 C           6.0966    6.4276    0.0000 C.3     1  UNL1       -0.0494
     46 C           6.5832    7.3013    0.0000 C.2     1  UNL1        0.3107
     47 C           7.1962   -2.8970    0.0000 C.3     1  UNL1        0.1888
     48 C           7.1962   -3.8970    0.0000 C.3     1  UNL1        0.1345
     49 C           6.3301   -4.3970    0.0000 C.3     1  UNL1        0.1211
     50 C           5.4641   -2.8970    0.0000 C.3     1  UNL1        0.1859
     51 C           5.4641   -3.8970    0.0000 C.3     1  UNL1        0.1205
     52 C           4.5981   -2.3970    0.0000 C.2     1  UNL1        0.3367
     53 C           5.4641   -5.8970    0.0000 C.3     1  UNL1        0.1890
     54 C           5.4641   -6.8970    0.0000 C.3     1  UNL1        0.1342
     55 C           4.5981   -7.3970    0.0000 C.3     1  UNL1        0.1145
     56 C           3.7320   -5.8970    0.0000 C.3     1  UNL1        0.1859
     57 C           3.7320   -6.8970    0.0000 C.3     1  UNL1        0.1201
     58 C           2.8660   -5.3970    0.0000 C.2     1  UNL1        0.3367
     59 H           8.6349    1.4878    0.0000 H       1  UNL1        0.0392
     60 H           9.5265   -0.0718    0.0000 H       1  UNL1        0.0312
     61 H          10.4872    1.7009    0.0000 H       1  UNL1        0.0271
     62 H          10.0775    2.3860    0.0000 H       1  UNL1        0.0271
     63 H          10.1030    0.1771    0.0000 H       1  UNL1        0.0268
     64 H          10.4968    0.8715    0.0000 H       1  UNL1        0.0268
     65 H           7.5417    4.5190    0.0000 H       1  UNL1        0.0351
     66 H          10.0742    3.2291    0.0000 H       1  UNL1        0.0274
     67 H          10.4787    3.9173    0.0000 H       1  UNL1        0.0274
     68 H           6.9349    0.8201    0.0000 H       1  UNL1        0.0272
     69 H           6.5252    0.1350    0.0000 H       1  UNL1        0.0272
     70 H          10.4819    4.7467    0.0000 H       1  UNL1        0.0271
     71 H          10.0827    5.4381    0.0000 H       1  UNL1        0.0271
     72 H           7.5246   -1.7060    0.0000 H       1  UNL1        0.0602
     73 H          10.0574    1.8705    0.0000 H       1  UNL1        0.0236
     74 H          10.5575    2.5907    0.0000 H       1  UNL1        0.0236
     75 H           9.8374    3.0908    0.0000 H       1  UNL1        0.0236
     76 H           6.5151   -0.7377    0.0000 H       1  UNL1        0.0290
     77 H           6.9088   -1.4321    0.0000 H       1  UNL1        0.0290
     78 H           7.5351    1.7974    0.0000 H       1  UNL1        0.0235
     79 H           6.6873    1.5737    0.0000 H       1  UNL1        0.0235
     80 H           6.9109    0.7259    0.0000 H       1  UNL1        0.0235
     81 H           9.8395    2.5224    0.0000 H       1  UNL1        0.0238
     82 H          10.5558    3.0281    0.0000 H       1  UNL1        0.0238
     83 H          10.0502    3.7444    0.0000 H       1  UNL1        0.0238
     84 H           6.6892    3.6045    0.0000 H       1  UNL1        0.0652
     85 H           6.5046    5.4526    0.0000 H       1  UNL1        0.0282
     86 H           6.9197    4.7706    0.0000 H       1  UNL1        0.0282
     87 H           9.5820    6.3491    0.0000 H       1  UNL1        0.0271
     88 H           9.1828    7.0404    0.0000 H       1  UNL1        0.0271
     89 H           8.9718   -2.0272    0.0000 H       1  UNL1        0.0236
     90 H           9.8205   -2.2476    0.0000 H       1  UNL1        0.0236
     91 H          10.0409   -1.3989    0.0000 H       1  UNL1        0.0236
     92 H          10.0045   -1.4632    0.0000 H       1  UNL1        0.0236
     93 H          10.6197   -0.8384    0.0000 H       1  UNL1        0.0236
     94 H           9.9949   -0.2232    0.0000 H       1  UNL1        0.0236
     95 H           8.4253    7.4739    0.0000 H       1  UNL1        0.0276
     96 H           7.6270    7.4677    0.0000 H       1  UNL1        0.0276
     97 H          10.1437    5.3492    0.0000 H       1  UNL1        0.0235
     98 H          10.3609    6.1987    0.0000 H       1  UNL1        0.0235
     99 H           9.5114    6.4158    0.0000 H       1  UNL1        0.0235
    100 H           6.0871    7.0476    0.0000 H       1  UNL1        0.0240
    101 H           5.4767    6.4181    0.0000 H       1  UNL1        0.0240
    102 H           6.1062    5.8077    0.0000 H       1  UNL1        0.0240
    103 H           7.7331   -3.2070    0.0000 H       1  UNL1        0.0938
    104 H           7.1962   -4.5170    0.0000 H       1  UNL1        0.0671
    105 H           6.7516    8.7070    0.0000 H       1  UNL1        0.2951
    106 H           5.7932   -4.7070    0.0000 H       1  UNL1        0.0652
    107 H           5.4641   -2.2770    0.0000 H       1  UNL1        0.0741
    108 H           4.9272   -3.5870    0.0000 H       1  UNL1        0.0652
    109 H           8.0622   -5.0170    0.0000 H       1  UNL1        0.2101
    110 H           4.0611   -4.0870    0.0000 H       1  UNL1        0.2100
    111 H           5.4641   -5.2770    0.0000 H       1  UNL1        0.0938
    112 H           5.4641   -7.5170    0.0000 H       1  UNL1        0.0671
    113 H           4.0611   -1.0870    0.0000 H       1  UNL1        0.2951
    114 H           4.0611   -7.7070    0.0000 H       1  UNL1        0.0648
    115 H           3.7320   -5.2770    0.0000 H       1  UNL1        0.0741
    116 H           3.1951   -6.5870    0.0000 H       1  UNL1        0.0652
    117 H           6.3301   -8.0170    0.0000 H       1  UNL1        0.2101
    118 H           4.0611   -8.7070    0.0000 H       1  UNL1        0.2100
    119 H           2.8660   -8.0170    0.0000 H       1  UNL1        0.2100
    120 H           2.3291   -4.0870    0.0000 H       1  UNL1        0.2951
@<TRIPOS>BOND
     1     1    31    1
     2     1    47    1
     3     2    32    2
     4     3    47    1
     5     3    50    1
     6     4    46    1
     7     4   105    1
     8     5    46    2
     9     6    48    1
    10     6   109    1
    11     7    49    1
    12     7    53    1
    13     8    51    1
    14     8   110    1
    15     9    52    1
    16     9   113    1
    17    10    52    2
    18    11    53    1
    19    11    56    1
    20    12    54    1
    21    12   117    1
    22    13    55    1
    23    13   118    1
    24    14    57    1
    25    14   119    1
    26    15    58    1
    27    15   120    1
    28    16    58    2
    29    17    19    1
    30    17    20    1
    31    17    22    1
    32    17    33    1
    33    18    19    1
    34    18    21    1
    35    18    29    1
    36    18    35    1
    37    19    32    1
    38    19    59    1
    39    20    25    1
    40    20    28    1
    41    20    36    1
    42    21    23    1
    43    21    24    1
    44    21    60    1
    45    22    24    1
    46    22    61    1
    47    22    62    1
    48    23    31    1
    49    23    41    1
    50    23    42    1
    51    24    63    1
    52    24    64    1
    53    25    26    1
    54    25    37    2
    55    26    27    1
    56    26    38    1
    57    26    65    1
    58    27    30    1
    59    27    39    1
    60    27    44    1
    61    28    30    1
    62    28    66    1
    63    28    67    1
    64    29    34    1
    65    29    68    1
    66    29    69    1
    67    30    70    1
    68    30    71    1
    69    31    34    1
    70    31    72    1
    71    32    37    1
    72    33    73    1
    73    33    74    1
    74    33    75    1
    75    34    76    1
    76    34    77    1
    77    35    78    1
    78    35    79    1
    79    35    80    1
    80    36    81    1
    81    36    82    1
    82    36    83    1
    83    37    84    1
    84    38    40    1
    85    38    85    1
    86    38    86    1
    87    39    43    1
    88    39    87    1
    89    39    88    1
    90    40    43    1
    91    40    45    1
    92    40    46    1
    93    41    92    1
    94    41    93    1
    95    41    94    1
    96    42    89    1
    97    42    90    1
    98    42    91    1
    99    43    95    1
   100    43    96    1
   101    44    97    1
   102    44    98    1
   103    44    99    1
   104    45   100    1
   105    45   101    1
   106    45   102    1
   107    47    48    1
   108    47   103    1
   109    48    49    1
   110    48   104    1
   111    49    51    1
   112    49   106    1
   113    50    51    1
   114    50    52    1
   115    50   107    1
   116    51   108    1
   117    53    54    1
   118    53   111    1
   119    54    55    1
   120    54   112    1
   121    55    57    1
   122    55   114    1
   123    56    57    1
   124    56    58    1
   125    56   115    1
   126    57   116    1
