@<TRIPOS>MOLECULE
IMPHY001832
 124 129 0 0 0
SMALL
GASTEIGER

@<TRIPOS>ATOM
      1 O           5.1643    3.2203    0.0000 O.3     1  UNL1       -0.3915
      2 O           6.8671   -2.9699    0.0000 O.3     1  UNL1       -0.3449
      3 O           5.1350   -2.9699    0.0000 O.3     1  UNL1       -0.3405
      4 O           6.8671   -4.9699    0.0000 O.3     1  UNL1       -0.3378
      5 O           5.1350   -5.9699    0.0000 O.3     1  UNL1       -0.3864
      6 O           3.4030   -4.9699    0.0000 O.3     1  UNL1       -0.3865
      7 O           6.0010   -6.4699    0.0000 O.3     1  UNL1       -0.3405
      8 O           2.5369   -3.4699    0.0000 O.3     1  UNL1       -0.3924
      9 O           8.5991   -5.9699    0.0000 O.3     1  UNL1       -0.3841
     10 O           8.5991   -7.9699    0.0000 O.3     1  UNL1       -0.3864
     11 O           6.8671   -8.9699    0.0000 O.3     1  UNL1       -0.3865
     12 O           4.2690   -7.4699    0.0000 O.3     1  UNL1       -0.3924
     13 C           7.7681    1.7303    0.0000 C.3     1  UNL1       -0.0229
     14 C           7.7643    2.7303    0.0000 C.3     1  UNL1       -0.0207
     15 C           6.9040    1.2270    0.0000 C.3     1  UNL1       -0.0271
     16 C           6.8920    0.1854    0.0000 C.3     1  UNL1       -0.0252
     17 C           6.8963    3.2270    0.0000 C.3     1  UNL1       -0.0026
     18 C           7.7920   -0.3389    0.0000 C.3     1  UNL1       -0.0278
     19 C           8.6801    1.2270    0.0000 C.3     1  UNL1       -0.0466
     20 C           6.0361    1.7236    0.0000 C.3     1  UNL1       -0.0227
     21 C           6.0322    2.7236    0.0000 C.3     1  UNL1        0.0594
     22 C           8.6921    0.1854    0.0000 C.3     1  UNL1       -0.0486
     23 C           8.4987    3.4002    0.0000 C.3     1  UNL1       -0.0462
     24 C           7.8046   -1.4238    0.0000 C.3     1  UNL1       -0.0052
     25 C           7.1018    4.1996    0.0000 C.3     1  UNL1       -0.0144
     26 C           5.9421   -0.3389    0.0000 C.3     1  UNL1       -0.0447
     27 C           8.0901    4.3065    0.0000 C.3     1  UNL1       -0.0456
     28 C           8.7522    1.9078    0.0000 C.3     1  UNL1       -0.0588
     29 C           8.7497    2.5605    0.0000 C.3     1  UNL1       -0.0587
     30 C           6.8671   -1.9699    0.0000 C.3     1  UNL1        0.0672
     31 C           6.0279    0.6888    0.0000 C.3     1  UNL1       -0.0590
     32 C           5.9295   -1.4238    0.0000 C.3     1  UNL1       -0.0255
     33 C           8.8046   -1.4161    0.0000 C.3     1  UNL1       -0.0572
     34 C           8.3113   -2.2859    0.0000 C.3     1  UNL1       -0.0572
     35 C           6.4311    4.9413    0.0000 C.2     1  UNL1       -0.0729
     36 C           6.7381    5.8930    0.0000 C.3     1  UNL1       -0.0283
     37 C           5.4534    4.7313    0.0000 C.2     1  UNL1       -0.0992
     38 C           6.0010   -3.4699    0.0000 C.3     1  UNL1        0.1886
     39 C           6.0674    6.6348    0.0000 C.3     1  UNL1       -0.0308
     40 C           6.0010   -4.4699    0.0000 C.3     1  UNL1        0.1406
     41 C           5.1350   -4.9699    0.0000 C.3     1  UNL1        0.1144
     42 C           4.2690   -3.4699    0.0000 C.3     1  UNL1        0.1130
     43 C           6.3744    7.5865    0.0000 C.2     1  UNL1       -0.0850
     44 C           4.2690   -4.4699    0.0000 C.3     1  UNL1        0.1119
     45 C           3.4030   -2.9699    0.0000 C.3     1  UNL1        0.0730
     46 C           5.7036    8.3282    0.0000 C.2     1  UNL1       -0.0796
     47 C           6.8671   -5.9699    0.0000 C.3     1  UNL1        0.1885
     48 C           7.7331   -6.4699    0.0000 C.3     1  UNL1        0.1341
     49 C           6.0106    9.2799    0.0000 C.3     1  UNL1       -0.0440
     50 C           4.7259    8.1182    0.0000 C.3     1  UNL1       -0.0440
     51 C           7.7331   -7.4699    0.0000 C.3     1  UNL1        0.1141
     52 C           6.0010   -7.4699    0.0000 C.3     1  UNL1        0.1130
     53 C           6.8671   -7.9699    0.0000 C.3     1  UNL1        0.1119
     54 C           5.1350   -7.9699    0.0000 C.3     1  UNL1        0.0730
     55 H           7.6385    0.7992    0.0000 H       1  UNL1        0.0312
     56 H           6.2074    3.7248    0.0000 H       1  UNL1        0.0337
     57 H           8.5314   -0.7582    0.0000 H       1  UNL1        0.0312
     58 H           9.2921    1.1280    0.0000 H       1  UNL1        0.0271
     59 H           8.8824    1.8131    0.0000 H       1  UNL1        0.0271
     60 H           5.4251    1.8290    0.0000 H       1  UNL1        0.0293
     61 H           5.8263    1.1402    0.0000 H       1  UNL1        0.0293
     62 H           5.4965    2.4116    0.0000 H       1  UNL1        0.0596
     63 H           8.9079   -0.3958    0.0000 H       1  UNL1        0.0268
     64 H           9.3017    0.2986    0.0000 H       1  UNL1        0.0268
     65 H           8.8661    2.9008    0.0000 H       1  UNL1        0.0271
     66 H           9.0340    3.7131    0.0000 H       1  UNL1        0.0271
     67 H           7.3225    4.7790    0.0000 H       1  UNL1        0.0349
     68 H           5.7398    0.2472    0.0000 H       1  UNL1        0.0271
     69 H           5.3300   -0.4379    0.0000 H       1  UNL1        0.0271
     70 H           8.6790    4.5005    0.0000 H       1  UNL1        0.0271
     71 H           7.9590    4.9124    0.0000 H       1  UNL1        0.0271
     72 H           8.8623    1.2976    0.0000 H       1  UNL1        0.0235
     73 H           9.3624    2.0178    0.0000 H       1  UNL1        0.0235
     74 H           8.6422    2.5179    0.0000 H       1  UNL1        0.0235
     75 H           8.6444    1.9495    0.0000 H       1  UNL1        0.0235
     76 H           9.3607    2.4552    0.0000 H       1  UNL1        0.0235
     77 H           8.8550    3.1715    0.0000 H       1  UNL1        0.0235
     78 H           7.4046   -2.2789    0.0000 H       1  UNL1        0.0602
     79 H           6.3400    1.2245    0.0000 H       1  UNL1        0.0235
     80 H           5.4922    1.0008    0.0000 H       1  UNL1        0.0235
     81 H           5.7158    0.1530    0.0000 H       1  UNL1        0.0235
     82 H           5.3199   -1.3106    0.0000 H       1  UNL1        0.0290
     83 H           5.7137   -2.0050    0.0000 H       1  UNL1        0.0290
     84 H           8.8094   -2.0360    0.0000 H       1  UNL1        0.0236
     85 H           7.7767   -2.6000    0.0000 H       1  UNL1        0.0236
     86 H           8.6254   -2.8204    0.0000 H       1  UNL1        0.0236
     87 H           8.8458   -1.9718    0.0000 H       1  UNL1        0.0236
     88 H           9.4246   -1.4113    0.0000 H       1  UNL1        0.0236
     89 H           8.7998   -0.7961    0.0000 H       1  UNL1        0.0236
     90 H           4.6286    2.9082    0.0000 H       1  UNL1        0.2098
     91 H           7.2861    5.6031    0.0000 H       1  UNL1        0.0313
     92 H           7.1187    6.3824    0.0000 H       1  UNL1        0.0313
     93 H           5.0375    5.1912    0.0000 H       1  UNL1        0.0534
     94 H           5.2630    4.1413    0.0000 H       1  UNL1        0.0534
     95 H           6.0010   -2.8499    0.0000 H       1  UNL1        0.0938
     96 H           5.5193    6.9247    0.0000 H       1  UNL1        0.0310
     97 H           5.6867    6.1454    0.0000 H       1  UNL1        0.0310
     98 H           6.0010   -5.0899    0.0000 H       1  UNL1        0.0675
     99 H           4.5981   -5.2799    0.0000 H       1  UNL1        0.0648
    100 H           4.2690   -2.8499    0.0000 H       1  UNL1        0.0647
    101 H           6.9805    7.7166    0.0000 H       1  UNL1        0.0572
    102 H           3.7320   -4.1599    0.0000 H       1  UNL1        0.0647
    103 H           3.8015   -2.4949    0.0000 H       1  UNL1        0.0584
    104 H           3.0044   -2.4949    0.0000 H       1  UNL1        0.0584
    105 H           7.4040   -5.6599    0.0000 H       1  UNL1        0.0938
    106 H           4.5981   -6.2799    0.0000 H       1  UNL1        0.2100
    107 H           3.4030   -5.5899    0.0000 H       1  UNL1        0.2100
    108 H           8.2700   -6.7799    0.0000 H       1  UNL1        0.0671
    109 H           6.6007    9.0895    0.0000 H       1  UNL1        0.0274
    110 H           6.2010    9.8700    0.0000 H       1  UNL1        0.0274
    111 H           5.4206    9.4702    0.0000 H       1  UNL1        0.0274
    112 H           4.5958    8.7244    0.0000 H       1  UNL1        0.0274
    113 H           4.1198    7.9880    0.0000 H       1  UNL1        0.0274
    114 H           4.8561    7.5120    0.0000 H       1  UNL1        0.0274
    115 H           2.0000   -3.1599    0.0000 H       1  UNL1        0.2095
    116 H           7.7331   -8.0899    0.0000 H       1  UNL1        0.0648
    117 H           5.4641   -7.1599    0.0000 H       1  UNL1        0.0647
    118 H           6.3301   -8.2799    0.0000 H       1  UNL1        0.0647
    119 H           8.5991   -5.3499    0.0000 H       1  UNL1        0.2101
    120 H           4.7365   -8.4448    0.0000 H       1  UNL1        0.0584
    121 H           5.5335   -8.4448    0.0000 H       1  UNL1        0.0584
    122 H           8.5991   -8.5899    0.0000 H       1  UNL1        0.2100
    123 H           6.3301   -9.2799    0.0000 H       1  UNL1        0.2100
    124 H           3.7320   -7.7799    0.0000 H       1  UNL1        0.2095
@<TRIPOS>BOND
     1    21     1    1
     2     1    90    1
     3    30     2    1
     4    38     2    1
     5     3    38    1
     6     3    42    1
     7    40     4    1
     8    47     4    1
     9    41     5    1
    10     5   106    1
    11    44     6    1
    12     6   107    1
    13     7    47    1
    14     7    52    1
    15     8    45    1
    16     8   115    1
    17    48     9    1
    18     9   119    1
    19    51    10    1
    20    10   122    1
    21    53    11    1
    22    11   123    1
    23    12    54    1
    24    12   124    1
    25    13    14    1
    26    13    15    1
    27    13    19    1
    28    13    28    1
    29    14    17    1
    30    14    23    1
    31    14    29    1
    32    15    16    1
    33    15    20    1
    34    15    55    1
    35    16    18    1
    36    16    26    1
    37    16    31    1
    38    17    21    1
    39    17    25    1
    40    17    56    1
    41    18    22    1
    42    18    24    1
    43    18    57    1
    44    19    22    1
    45    19    58    1
    46    19    59    1
    47    20    21    1
    48    20    60    1
    49    20    61    1
    50    21    62    1
    51    22    63    1
    52    22    64    1
    53    23    27    1
    54    23    65    1
    55    23    66    1
    56    24    30    1
    57    24    33    1
    58    24    34    1
    59    25    27    1
    60    25    35    1
    61    25    67    1
    62    26    32    1
    63    26    68    1
    64    26    69    1
    65    27    70    1
    66    27    71    1
    67    28    72    1
    68    28    73    1
    69    28    74    1
    70    29    75    1
    71    29    76    1
    72    29    77    1
    73    30    32    1
    74    30    78    1
    75    31    79    1
    76    31    80    1
    77    31    81    1
    78    32    82    1
    79    32    83    1
    80    33    84    1
    81    33    88    1
    82    33    89    1
    83    34    85    1
    84    34    86    1
    85    34    87    1
    86    35    36    1
    87    35    37    2
    88    36    39    1
    89    36    91    1
    90    36    92    1
    91    37    93    1
    92    37    94    1
    93    38    40    1
    94    38    95    1
    95    39    43    1
    96    39    96    1
    97    39    97    1
    98    40    41    1
    99    40    98    1
   100    41    44    1
   101    41    99    1
   102    42    44    1
   103    42    45    1
   104    42   100    1
   105    43    46    2
   106    43   101    1
   107    44   102    1
   108    45   103    1
   109    45   104    1
   110    46    49    1
   111    46    50    1
   112    47    48    1
   113    47   105    1
   114    48    51    1
   115    48   108    1
   116    49   109    1
   117    49   110    1
   118    49   111    1
   119    50   112    1
   120    50   113    1
   121    50   114    1
   122    51    53    1
   123    51   116    1
   124    52    53    1
   125    52    54    1
   126    52   117    1
   127    53   118    1
   128    54   120    1
   129    54   121    1
