@<TRIPOS>MOLECULE
IMPHY017746
 13 12 0 0 0
SMALL
GASTEIGER

@<TRIPOS>ATOM
      1 S           5.1350    0.2500    0.0000 S.3     1  UNL1       -0.1619
      2 O           2.5369   -0.2500    0.0000 O.3     1  UNL1       -0.3942
      3 C           4.2690   -0.2500    0.0000 C.3     1  UNL1        0.0166
      4 C           3.4030    0.2500    0.0000 C.3     1  UNL1        0.0532
      5 C           6.0010   -0.2500    0.0000 C.3     1  UNL1       -0.0180
      6 H           3.8705   -0.7249    0.0000 H       1  UNL1        0.0399
      7 H           4.6675   -0.7249    0.0000 H       1  UNL1        0.0399
      8 H           3.8015    0.7249    0.0000 H       1  UNL1        0.0565
      9 H           3.0044    0.7249    0.0000 H       1  UNL1        0.0565
     10 H           5.6910   -0.7869    0.0000 H       1  UNL1        0.0340
     11 H           6.5380   -0.5600    0.0000 H       1  UNL1        0.0340
     12 H           6.3110    0.2869    0.0000 H       1  UNL1        0.0340
     13 H           2.0000    0.0600    0.0000 H       1  UNL1        0.2094
@<TRIPOS>BOND
     1     1     3    1
     2     1     5    1
     3     2     4    1
     4     2    13    1
     5     3     4    1
     6     3     6    1
     7     3     7    1
     8     4     8    1
     9     4     9    1
    10     5    10    1
    11     5    11    1
    12     5    12    1
