@<TRIPOS>MOLECULE
IMPHY010608
 112 120 0 0 0
SMALL
GASTEIGER

@<TRIPOS>ATOM
      1 O           8.0777   -3.2407    0.0000 O.3     1  UNL1       -0.3741
      2 O           6.8102   -5.1954    0.0000 O.3     1  UNL1       -0.3874
      3 O           8.8208   -3.9098    0.0000 O.3     1  UNL1       -0.4658
      4 O           7.6619   -5.1970    0.0000 O.2     1  UNL1       -0.2474
      5 O           8.1801    1.2496    0.0000 O.3     1  UNL1       -0.4947
      6 O           6.5287   -0.0634    0.0000 O.3     1  UNL1       -0.4670
      7 O           5.2439   -0.0184    0.0000 O.2     1  UNL1       -0.2494
      8 O           9.1930    5.1968    0.0000 O.3     1  UNL1       -0.3873
      9 N           4.3838   -2.9667    0.0000 N.3     1  UNL1       -0.2940
     10 N           7.4632   -1.9661    0.0000 N.pl3   1  UNL1       -0.3253
     11 N           6.8864    4.4683    0.0000 N.3     1  UNL1       -0.2990
     12 N           4.6681    1.3132    0.0000 N.ar    1  UNL1       -0.3565
     13 C           5.9235   -2.4664    0.0000 C.3     1  UNL1        0.0368
     14 C           5.2980   -3.1610    0.0000 C.3     1  UNL1        0.0337
     15 C           6.8378   -2.6608    0.0000 C.3     1  UNL1        0.0761
     16 C           5.5869   -4.0500    0.0000 C.3     1  UNL1        0.0342
     17 C           7.1266   -3.5497    0.0000 C.3     1  UNL1        0.2083
     18 C           5.5384   -1.4308    0.0000 C.3     1  UNL1       -0.0272
     19 C           6.5012   -4.2443    0.0000 C.3     1  UNL1        0.1066
     20 C           6.2601   -0.8828    0.0000 C.ar    1  UNL1       -0.0162
     21 C           4.0949   -2.0777    0.0000 C.3     1  UNL1        0.0005
     22 C           5.8959   -5.0011    0.0000 C.3     1  UNL1       -0.0428
     23 C           7.1744   -1.0772    0.0000 C.ar    1  UNL1        0.0372
     24 C           4.9614   -4.7446    0.0000 C.2     1  UNL1       -0.0765
     25 C           3.7583   -3.6613    0.0000 C.3     1  UNL1        0.0175
     26 C           4.0472   -4.5503    0.0000 C.2     1  UNL1       -0.0733
     27 C           7.8698   -4.2188    0.0000 C.2     1  UNL1        0.3435
     28 C           5.9713    0.0062    0.0000 C.ar    1  UNL1       -0.0481
     29 C           8.4143   -1.6571    0.0000 C.3     1  UNL1        0.0011
     30 C           7.7998   -0.3825    0.0000 C.ar    1  UNL1        0.0017
     31 C           5.2268   -5.7442    0.0000 C.3     1  UNL1       -0.0644
     32 C           6.5967    0.7008    0.0000 C.ar    1  UNL1        0.0172
     33 C           7.5110    0.5064    0.0000 C.ar    1  UNL1        0.1265
     34 C           6.2877    1.6518    0.0000 C.3     1  UNL1        0.1360
     35 C           7.2388    1.9609    0.0000 C.3     1  UNL1       -0.0234
     36 C           5.3605    2.0264    0.0000 C.ar    1  UNL1        0.0418
     37 C           7.7687    2.8089    0.0000 C.3     1  UNL1       -0.0239
     38 C           5.9131    0.7247    0.0000 C.2     1  UNL1        0.3235
     39 C           9.5640   -4.5790    0.0000 C.3     1  UNL1        0.0818
     40 C           8.6440    3.3302    0.0000 C.3     1  UNL1       -0.0188
     41 C           7.6295    3.7992    0.0000 C.3     1  UNL1        0.0020
     42 C           4.8910    2.9094    0.0000 C.ar    1  UNL1       -0.0165
     43 C           8.6631    4.3487    0.0000 C.3     1  UNL1        0.0788
     44 C           7.8080    4.9025    0.0000 C.3     1  UNL1        0.0278
     45 C           5.0990    3.8875    0.0000 C.3     1  UNL1       -0.0126
     46 C           5.8870    4.5032    0.0000 C.3     1  UNL1        0.0031
     47 C           3.9125    2.7342    0.0000 C.ar    1  UNL1        0.0032
     48 C           9.1583    1.0417    0.0000 C.3     1  UNL1        0.0788
     49 C           3.7750    1.7497    0.0000 C.ar    1  UNL1        0.0470
     50 C           9.6625    4.3138    0.0000 C.3     1  UNL1       -0.0256
     51 C           3.1059    3.3835    0.0000 C.ar    1  UNL1       -0.0523
     52 C           2.8214    1.3462    0.0000 C.ar    1  UNL1       -0.0378
     53 C          10.1319    3.4309    0.0000 C.3     1  UNL1       -0.0626
     54 C           7.6676    0.0967    0.0000 C.3     1  UNL1        0.0817
     55 C           2.1432    3.0022    0.0000 C.ar    1  UNL1       -0.0611
     56 C           2.0000    1.9767    0.0000 C.ar    1  UNL1       -0.0598
     57 H           5.0354   -2.3526    0.0000 H       1  UNL1        0.0481
     58 H           7.6692   -2.8375    0.0000 H       1  UNL1        0.0544
     59 H           6.1147   -1.2021    0.0000 H       1  UNL1        0.0287
     60 H           5.2972   -0.8596    0.0000 H       1  UNL1        0.0287
     61 H           7.1076   -4.3732    0.0000 H       1  UNL1        0.0637
     62 H           3.8617   -1.5033    0.0000 H       1  UNL1        0.0427
     63 H           3.5125   -2.2903    0.0000 H       1  UNL1        0.0427
     64 H           6.2776   -5.4896    0.0000 H       1  UNL1        0.0272
     65 H           6.4433   -4.7100    0.0000 H       1  UNL1        0.0272
     66 H           5.1530   -5.3343    0.0000 H       1  UNL1        0.0576
     67 H           3.3766   -3.1728    0.0000 H       1  UNL1        0.0470
     68 H           3.2109   -3.9524    0.0000 H       1  UNL1        0.0470
     69 H           3.6323   -5.0110    0.0000 H       1  UNL1        0.0582
     70 H           5.3648    0.1351    0.0000 H       1  UNL1        0.0625
     71 H           8.4925   -2.7800    0.0000 H       1  UNL1        0.2110
     72 H           8.6059   -2.2468    0.0000 H       1  UNL1        0.0428
     73 H           9.0039   -1.4655    0.0000 H       1  UNL1        0.0428
     74 H           8.2227   -1.0674    0.0000 H       1  UNL1        0.0428
     75 H           6.3954   -5.6562    0.0000 H       1  UNL1        0.2100
     76 H           8.4063   -0.5114    0.0000 H       1  UNL1        0.0673
     77 H           4.7660   -5.3293    0.0000 H       1  UNL1        0.0230
     78 H           4.8119   -6.2050    0.0000 H       1  UNL1        0.0230
     79 H           5.6875   -6.1591    0.0000 H       1  UNL1        0.0230
     80 H           7.2532    1.3410    0.0000 H       1  UNL1        0.0286
     81 H           7.8367    1.7969    0.0000 H       1  UNL1        0.0286
     82 H           8.3633    2.2015    0.0000 H       1  UNL1        0.0314
     83 H           9.1491   -5.0397    0.0000 H       1  UNL1        0.0661
     84 H          10.0247   -4.9938    0.0000 H       1  UNL1        0.0661
     85 H           9.9788   -4.1182    0.0000 H       1  UNL1        0.0661
     86 H           8.8576    2.7481    0.0000 H       1  UNL1        0.0296
     87 H           9.2554    3.4329    0.0000 H       1  UNL1        0.0296
     88 H           8.2424    3.7057    0.0000 H       1  UNL1        0.0429
     89 H           7.8948    4.3595    0.0000 H       1  UNL1        0.0429
     90 H           4.3572    0.7768    0.0000 H       1  UNL1        0.1656
     91 H           8.2351    5.3519    0.0000 H       1  UNL1        0.0455
     92 H           7.4449    5.4051    0.0000 H       1  UNL1        0.0455
     93 H           4.8734    4.4651    0.0000 H       1  UNL1        0.0326
     94 H           4.4810    3.8371    0.0000 H       1  UNL1        0.0326
     95 H           6.0854    5.0906    0.0000 H       1  UNL1        0.0430
     96 H           5.3812    4.8618    0.0000 H       1  UNL1        0.0430
     97 H           9.0294    0.4352    0.0000 H       1  UNL1        0.0660
     98 H           9.7647    0.9128    0.0000 H       1  UNL1        0.0660
     99 H           9.2872    1.6481    0.0000 H       1  UNL1        0.0660
    100 H          10.2521    4.5054    0.0000 H       1  UNL1        0.0291
    101 H           9.5762    4.9278    0.0000 H       1  UNL1        0.0291
    102 H           8.9019    5.7442    0.0000 H       1  UNL1        0.2102
    103 H           3.1988    3.9966    0.0000 H       1  UNL1        0.0624
    104 H           2.7427    0.7312    0.0000 H       1  UNL1        0.0638
    105 H           9.5845    3.1398    0.0000 H       1  UNL1        0.0231
    106 H          10.4230    2.8834    0.0000 H       1  UNL1        0.0231
    107 H          10.6794    3.7220    0.0000 H       1  UNL1        0.0231
    108 H           7.7538   -0.5173    0.0000 H       1  UNL1        0.0661
    109 H           8.2815    0.1830    0.0000 H       1  UNL1        0.0661
    110 H           7.5813    0.7107    0.0000 H       1  UNL1        0.0661
    111 H           1.6558    3.3854    0.0000 H       1  UNL1        0.0618
    112 H           1.4262    1.7418    0.0000 H       1  UNL1        0.0618
@<TRIPOS>BOND
     1    17     1    1
     2     1    71    1
     3    19     2    1
     4     2    75    1
     5     3    27    1
     6     3    39    1
     7     4    27    2
     8     5    33    1
     9     5    48    1
    10     6    38    1
    11     6    54    1
    12     7    38    2
    13    43     8    1
    14     8   102    1
    15     9    14    1
    16     9    21    1
    17     9    25    1
    18    10    15    1
    19    10    23    1
    20    10    29    1
    21    11    41    1
    22    11    44    1
    23    11    46    1
    24    12    36   ar
    25    12    49   ar
    26    12    90    1
    27    13    14    1
    28    13    15    1
    29    13    18    1
    30    13    20    1
    31    14    16    1
    32    14    57    1
    33    15    17    1
    34    15    58    1
    35    16    19    1
    36    16    22    1
    37    16    24    1
    38    17    19    1
    39    17    27    1
    40    18    21    1
    41    18    59    1
    42    18    60    1
    43    19    61    1
    44    20    23   ar
    45    20    28   ar
    46    21    62    1
    47    21    63    1
    48    22    31    1
    49    22    64    1
    50    22    65    1
    51    23    30   ar
    52    24    26    2
    53    24    66    1
    54    25    26    1
    55    25    67    1
    56    25    68    1
    57    26    69    1
    58    28    32   ar
    59    28    70    1
    60    29    72    1
    61    29    73    1
    62    29    74    1
    63    30    33   ar
    64    30    76    1
    65    31    77    1
    66    31    78    1
    67    31    79    1
    68    32    33   ar
    69    32    34    1
    70    34    35    1
    71    34    36    1
    72    34    38    1
    73    35    37    1
    74    35    80    1
    75    35    81    1
    76    36    42   ar
    77    37    40    1
    78    37    41    1
    79    37    82    1
    80    39    83    1
    81    39    84    1
    82    39    85    1
    83    40    43    1
    84    40    86    1
    85    40    87    1
    86    41    88    1
    87    41    89    1
    88    42    45    1
    89    42    47   ar
    90    43    44    1
    91    43    50    1
    92    44    91    1
    93    44    92    1
    94    45    46    1
    95    45    93    1
    96    45    94    1
    97    46    95    1
    98    46    96    1
    99    47    49   ar
   100    47    51   ar
   101    48    97    1
   102    48    98    1
   103    48    99    1
   104    49    52   ar
   105    50    53    1
   106    50   100    1
   107    50   101    1
   108    51    55   ar
   109    51   103    1
   110    52    56   ar
   111    52   104    1
   112    53   105    1
   113    53   106    1
   114    53   107    1
   115    54   108    1
   116    54   109    1
   117    54   110    1
   118    55    56   ar
   119    55   111    1
   120    56   112    1
