@<TRIPOS>MOLECULE
IMPHY011244
 55 58 0 0 0
SMALL
GASTEIGER

@<TRIPOS>ATOM
      1 O           8.4472    1.9015    0.0000 O.3     1  UNL1       -0.3860
      2 O           9.4682    1.2825    0.0000 O.3     1  UNL1       -0.3922
      3 O           2.0000   -1.7057    0.0000 O.2     1  UNL1       -0.2968
      4 C           6.5193   -0.1308    0.0000 C.3     1  UNL1       -0.0229
      5 C           5.6508    0.3648    0.0000 C.3     1  UNL1       -0.0296
      6 C           4.7433   -0.1465    0.0000 C.3     1  UNL1       -0.0246
      7 C           7.1709    2.0196    0.0000 C.3     1  UNL1       -0.0094
      8 C           6.4948    1.0505    0.0000 C.3     1  UNL1       -0.0415
      9 C           4.7405   -1.1882    0.0000 C.3     1  UNL1       -0.0235
     10 C           7.4483    0.2391    0.0000 C.3     1  UNL1       -0.0156
     11 C           6.5405   -1.1722    0.0000 C.3     1  UNL1       -0.0467
     12 C           7.7383    1.1962    0.0000 C.3     1  UNL1        0.0923
     13 C           5.4968    1.3529    0.0000 C.3     1  UNL1       -0.0489
     14 C           5.6451   -1.7045    0.0000 C.3     1  UNL1       -0.0483
     15 C           6.1733    2.0894    0.0000 C.3     1  UNL1       -0.0472
     16 C           3.8078   -1.7425    0.0000 C.3     1  UNL1        0.0267
     17 C           3.8136    0.4129    0.0000 C.3     1  UNL1       -0.0404
     18 C           4.4038    0.7941    0.0000 C.3     1  UNL1       -0.0590
     19 C           2.8684   -0.1197    0.0000 C.3     1  UNL1        0.0069
     20 C           8.6282    0.7400    0.0000 C.3     1  UNL1        0.0732
     21 C           2.8655   -1.2047    0.0000 C.2     1  UNL1        0.1392
     22 C           3.3155   -2.6130    0.0000 C.3     1  UNL1       -0.0528
     23 C           4.3154   -2.6041    0.0000 C.3     1  UNL1       -0.0528
     24 H           4.9125    0.7862    0.0000 H       1  UNL1        0.0311
     25 H           7.4173    2.8331    0.0000 H       1  UNL1        0.0329
     26 H           6.1205    1.5448    0.0000 H       1  UNL1        0.0274
     27 H           5.9091    0.8471    0.0000 H       1  UNL1        0.0274
     28 H           4.7480   -2.0381    0.0000 H       1  UNL1        0.0315
     29 H           7.5438   -0.3735    0.0000 H       1  UNL1        0.0299
     30 H           8.0668    0.1959    0.0000 H       1  UNL1        0.0299
     31 H           6.7614   -1.7516    0.0000 H       1  UNL1        0.0271
     32 H           7.1491   -1.0537    0.0000 H       1  UNL1        0.0271
     33 H           5.1450    1.8634    0.0000 H       1  UNL1        0.0268
     34 H           4.9208    1.1235    0.0000 H       1  UNL1        0.0268
     35 H           5.2502   -2.1824    0.0000 H       1  UNL1        0.0269
     36 H           6.0484   -2.1754    0.0000 H       1  UNL1        0.0269
     37 H           6.3531    2.6827    0.0000 H       1  UNL1        0.0269
     38 H           5.6348    2.3967    0.0000 H       1  UNL1        0.0269
     39 H           4.2195    0.8816    0.0000 H       1  UNL1        0.0275
     40 H           3.4213    0.8930    0.0000 H       1  UNL1        0.0275
     41 H           4.9870    1.0046    0.0000 H       1  UNL1        0.0235
     42 H           4.1934    1.3773    0.0000 H       1  UNL1        0.0235
     43 H           3.8206    0.5836    0.0000 H       1  UNL1        0.0235
     44 H           2.6610    0.4645    0.0000 H       1  UNL1        0.0342
     45 H           2.2573   -0.2242    0.0000 H       1  UNL1        0.0342
     46 H           8.2538    0.2457    0.0000 H       1  UNL1        0.0586
     47 H           9.0499    0.2855    0.0000 H       1  UNL1        0.0586
     48 H           2.7758   -2.3077    0.0000 H       1  UNL1        0.0239
     49 H           3.0102   -3.1526    0.0000 H       1  UNL1        0.0239
     50 H           3.8551   -2.9182    0.0000 H       1  UNL1        0.0239
     51 H           3.7812   -2.9188    0.0000 H       1  UNL1        0.0239
     52 H           4.6302   -3.1383    0.0000 H       1  UNL1        0.0239
     53 H           4.8496   -2.2894    0.0000 H       1  UNL1        0.0239
     54 H           8.2882    2.5008    0.0000 H       1  UNL1        0.2103
     55 H          10.0199    0.9997    0.0000 H       1  UNL1        0.2095
@<TRIPOS>BOND
     1    12     1    1
     2     1    54    1
     3     2    20    1
     4     2    55    1
     5     3    21    2
     6     4     5    1
     7     4     8    1
     8     4    10    1
     9     4    11    1
    10     5     6    1
    11     5    13    1
    12     5    24    1
    13     6     9    1
    14     6    17    1
    15     6    18    1
    16     7     8    1
    17     7    12    1
    18     7    15    1
    19     7    25    1
    20     8    26    1
    21     8    27    1
    22     9    14    1
    23     9    16    1
    24     9    28    1
    25    10    12    1
    26    10    29    1
    27    10    30    1
    28    11    14    1
    29    11    31    1
    30    11    32    1
    31    12    20    1
    32    13    15    1
    33    13    33    1
    34    13    34    1
    35    14    35    1
    36    14    36    1
    37    15    37    1
    38    15    38    1
    39    16    21    1
    40    16    22    1
    41    16    23    1
    42    17    19    1
    43    17    39    1
    44    17    40    1
    45    18    41    1
    46    18    42    1
    47    18    43    1
    48    19    21    1
    49    19    44    1
    50    19    45    1
    51    20    46    1
    52    20    47    1
    53    22    48    1
    54    22    49    1
    55    22    50    1
    56    23    51    1
    57    23    52    1
    58    23    53    1
