@<TRIPOS>MOLECULE
IMPHY016280
 44 43 0 0 0
SMALL
GASTEIGER

@<TRIPOS>ATOM
      1 C           6.3301    0.2500    0.0000 C.3     1  UNL1       -0.0531
      2 C           5.4641    0.7500    0.0000 C.3     1  UNL1       -0.0530
      3 C           7.1962    0.7500    0.0000 C.3     1  UNL1       -0.0531
      4 C           4.5981    0.2500    0.0000 C.3     1  UNL1       -0.0528
      5 C           8.0622    0.2500    0.0000 C.3     1  UNL1       -0.0531
      6 C           3.7320    0.7500    0.0000 C.3     1  UNL1       -0.0507
      7 C           8.9282    0.7500    0.0000 C.3     1  UNL1       -0.0531
      8 C           2.8660    0.2500    0.0000 C.3     1  UNL1       -0.0467
      9 C           9.7942    0.2500    0.0000 C.3     1  UNL1       -0.0531
     10 C          10.6603    0.7500    0.0000 C.3     1  UNL1       -0.0533
     11 C           2.0000    0.7500    0.0000 C.3     1  UNL1       -0.0627
     12 C           2.8660   -0.7500    0.0000 C.3     1  UNL1       -0.0627
     13 C          11.5263    0.2500    0.0000 C.3     1  UNL1       -0.0559
     14 C          12.3923    0.7500    0.0000 C.3     1  UNL1       -0.0653
     15 H           5.9316   -0.2249    0.0000 H       1  UNL1        0.0265
     16 H           6.7287   -0.2249    0.0000 H       1  UNL1        0.0265
     17 H           5.8626    1.2250    0.0000 H       1  UNL1        0.0265
     18 H           5.0656    1.2250    0.0000 H       1  UNL1        0.0265
     19 H           7.5947    1.2250    0.0000 H       1  UNL1        0.0265
     20 H           6.7976    1.2250    0.0000 H       1  UNL1        0.0265
     21 H           4.1996   -0.2249    0.0000 H       1  UNL1        0.0265
     22 H           4.9966   -0.2249    0.0000 H       1  UNL1        0.0265
     23 H           7.6636   -0.2249    0.0000 H       1  UNL1        0.0265
     24 H           8.4607   -0.2249    0.0000 H       1  UNL1        0.0265
     25 H           4.1306    1.2250    0.0000 H       1  UNL1        0.0268
     26 H           3.3335    1.2250    0.0000 H       1  UNL1        0.0268
     27 H           9.3267    1.2250    0.0000 H       1  UNL1        0.0265
     28 H           8.5297    1.2250    0.0000 H       1  UNL1        0.0265
     29 H           2.8660    0.8700    0.0000 H       1  UNL1        0.0295
     30 H           9.3957   -0.2249    0.0000 H       1  UNL1        0.0265
     31 H          10.1928   -0.2249    0.0000 H       1  UNL1        0.0265
     32 H          11.0588    1.2250    0.0000 H       1  UNL1        0.0265
     33 H          10.2617    1.2250    0.0000 H       1  UNL1        0.0265
     34 H           2.3100    1.2869    0.0000 H       1  UNL1        0.0232
     35 H           1.4631    1.0600    0.0000 H       1  UNL1        0.0232
     36 H           1.6900    0.2131    0.0000 H       1  UNL1        0.0232
     37 H           2.2460   -0.7500    0.0000 H       1  UNL1        0.0232
     38 H           2.8660   -1.3700    0.0000 H       1  UNL1        0.0232
     39 H           3.4860   -0.7500    0.0000 H       1  UNL1        0.0232
     40 H          11.1278   -0.2249    0.0000 H       1  UNL1        0.0263
     41 H          11.9248   -0.2249    0.0000 H       1  UNL1        0.0263
     42 H          12.7023    0.2131    0.0000 H       1  UNL1        0.0230
     43 H          12.9292    1.0600    0.0000 H       1  UNL1        0.0230
     44 H          12.0823    1.2869    0.0000 H       1  UNL1        0.0230
@<TRIPOS>BOND
     1     1     2    1
     2     1     3    1
     3     1    15    1
     4     1    16    1
     5     2     4    1
     6     2    17    1
     7     2    18    1
     8     3     5    1
     9     3    19    1
    10     3    20    1
    11     4     6    1
    12     4    21    1
    13     4    22    1
    14     5     7    1
    15     5    23    1
    16     5    24    1
    17     6     8    1
    18     6    25    1
    19     6    26    1
    20     7     9    1
    21     7    27    1
    22     7    28    1
    23     8    11    1
    24     8    12    1
    25     8    29    1
    26     9    10    1
    27     9    30    1
    28     9    31    1
    29    10    13    1
    30    10    32    1
    31    10    33    1
    32    11    34    1
    33    11    35    1
    34    11    36    1
    35    12    37    1
    36    12    38    1
    37    12    39    1
    38    13    14    1
    39    13    40    1
    40    13    41    1
    41    14    42    1
    42    14    43    1
    43    14    44    1
