@<TRIPOS>MOLECULE
IMPHY004587
 51 54 0 0 0
SMALL
GASTEIGER

@<TRIPOS>ATOM
      1 O           5.1350   -1.1121    0.0000 O.3     1  UNL1       -0.3609
      2 O           2.5369   -0.6121    0.0000 O.3     1  UNL1       -0.3862
      3 O           2.5369   -2.6121    0.0000 O.3     1  UNL1       -0.3865
      4 O           4.2690   -3.6121    0.0000 O.3     1  UNL1       -0.3865
      5 O           6.0010   -3.6121    0.0000 O.3     1  UNL1       -0.3924
      6 O           6.0290    0.3533    0.0000 O.2     1  UNL1       -0.4615
      7 O           2.5369    0.3879    0.0000 O.3     1  UNL1       -0.5062
      8 O           4.2690    3.3879    0.0000 O.3     1  UNL1       -0.5058
      9 O           6.0174    3.4225    0.0000 O.2     1  UNL1       -0.2863
     10 O          10.3914    3.9221    0.0000 O.3     1  UNL1       -0.5068
     11 C           3.4030   -1.1121    0.0000 C.3     1  UNL1        0.1139
     12 C           3.4030   -2.1121    0.0000 C.3     1  UNL1        0.1121
     13 C           4.2690   -0.6121    0.0000 C.3     1  UNL1        0.1193
     14 C           4.2690   -2.6121    0.0000 C.3     1  UNL1        0.1117
     15 C           5.1350   -2.1121    0.0000 C.3     1  UNL1        0.1108
     16 C           4.2690    0.3879    0.0000 C.ar    1  UNL1        0.0682
     17 C           6.0010   -2.6121    0.0000 C.3     1  UNL1        0.0729
     18 C           5.1350    0.8879    0.0000 C.ar    1  UNL1        0.1511
     19 C           3.4030    0.8879    0.0000 C.ar    1  UNL1        0.1296
     20 C           5.1350    1.8879    0.0000 C.ar    1  UNL1        0.1064
     21 C           3.4030    1.8879    0.0000 C.ar    1  UNL1        0.0226
     22 C           4.2690    2.3879    0.0000 C.ar    1  UNL1        0.1347
     23 C           6.0290    2.4226    0.0000 C.ar    1  UNL1        0.2037
     24 C           6.9350    1.9087    0.0000 C.ar    1  UNL1        0.0644
     25 C           6.9350    0.8671    0.0000 C.ar    1  UNL1        0.1039
     26 C           7.7991    2.4121    0.0000 C.ar    1  UNL1       -0.0110
     27 C           8.6671    1.9154    0.0000 C.ar    1  UNL1       -0.0504
     28 C           7.7953    3.4121    0.0000 C.ar    1  UNL1       -0.0504
     29 C           9.5312    2.4188    0.0000 C.ar    1  UNL1       -0.0196
     30 C           8.6594    3.9154    0.0000 C.ar    1  UNL1       -0.0196
     31 C           9.5273    3.4187    0.0000 C.ar    1  UNL1        0.1169
     32 H           2.8660   -1.4221    0.0000 H       1  UNL1        0.0649
     33 H           3.4030   -2.7321    0.0000 H       1  UNL1        0.0647
     34 H           5.0051   -0.1871    0.0000 H       1  UNL1        0.0676
     35 H           4.8059   -2.9221    0.0000 H       1  UNL1        0.0647
     36 H           5.6720   -1.8021    0.0000 H       1  UNL1        0.0646
     37 H           6.6116   -2.7197    0.0000 H       1  UNL1        0.0584
     38 H           6.2131   -2.0295    0.0000 H       1  UNL1        0.0584
     39 H           2.0000   -0.9221    0.0000 H       1  UNL1        0.2100
     40 H           2.5369   -3.2321    0.0000 H       1  UNL1        0.2100
     41 H           3.7320   -3.9221    0.0000 H       1  UNL1        0.2100
     42 H           2.8660    2.1979    0.0000 H       1  UNL1        0.0691
     43 H           6.5380   -3.9221    0.0000 H       1  UNL1        0.2095
     44 H           7.4708    0.5550    0.0000 H       1  UNL1        0.1037
     45 H           2.0000    0.6979    0.0000 H       1  UNL1        0.2922
     46 H           3.7320    3.6979    0.0000 H       1  UNL1        0.2922
     47 H           8.6694    1.2954    0.0000 H       1  UNL1        0.0625
     48 H           7.2571    3.7200    0.0000 H       1  UNL1        0.0625
     49 H          10.0693    2.1108    0.0000 H       1  UNL1        0.0654
     50 H           8.6570    4.5354    0.0000 H       1  UNL1        0.0654
     51 H          10.9295    3.6142    0.0000 H       1  UNL1        0.2921
@<TRIPOS>BOND
     1     1    13    1
     2     1    15    1
     3    11     2    1
     4     2    39    1
     5    12     3    1
     6     3    40    1
     7    14     4    1
     8     4    41    1
     9     5    17    1
    10     5    43    1
    11     6    18   ar
    12     6    25   ar
    13     7    19    1
    14     7    45    1
    15     8    22    1
    16     8    46    1
    17     9    23    2
    18    10    31    1
    19    10    51    1
    20    11    12    1
    21    11    13    1
    22    11    32    1
    23    12    14    1
    24    12    33    1
    25    13    16    1
    26    13    34    1
    27    14    15    1
    28    14    35    1
    29    15    17    1
    30    15    36    1
    31    16    18   ar
    32    16    19   ar
    33    17    37    1
    34    17    38    1
    35    18    20   ar
    36    19    21   ar
    37    20    22   ar
    38    20    23   ar
    39    21    22   ar
    40    21    42    1
    41    23    24   ar
    42    24    25   ar
    43    24    26    1
    44    25    44    1
    45    26    27   ar
    46    26    28   ar
    47    27    29   ar
    48    27    47    1
    49    28    30   ar
    50    28    48    1
    51    29    31   ar
    52    29    49    1
    53    30    31   ar
    54    30    50    1
