@<TRIPOS>MOLECULE
IMPHY016584
 36 37 0 0 0
SMALL
GASTEIGER

@<TRIPOS>ATOM
      1 O           5.8424    2.7862    0.0000 O.2     1  UNL1       -0.3007
      2 C           2.9511    1.1307    0.0000 C.3     1  UNL1       -0.0338
      3 C           3.2601    2.0817    0.0000 C.3     1  UNL1       -0.0315
      4 C           3.7601    0.5429    0.0000 C.3     1  UNL1       -0.0124
      5 C           4.2601    2.0817    0.0000 C.3     1  UNL1        0.0179
      6 C           4.5691    1.1307    0.0000 C.3     1  UNL1       -0.0364
      7 C           2.0000    0.8216    0.0000 C.3     1  UNL1       -0.0616
      8 C           3.7601   -0.4571    0.0000 C.ar    1  UNL1       -0.0440
      9 C           2.6723    2.8907    0.0000 C.3     1  UNL1       -0.0615
     10 C           4.8479    2.8907    0.0000 C.2     1  UNL1        0.1236
     11 C           4.6261   -0.9571    0.0000 C.ar    1  UNL1       -0.0580
     12 C           2.8940   -0.9571    0.0000 C.ar    1  UNL1       -0.0580
     13 C           4.6261   -1.9571    0.0000 C.ar    1  UNL1       -0.0586
     14 C           2.8940   -1.9571    0.0000 C.ar    1  UNL1       -0.0586
     15 C           3.7601   -2.4571    0.0000 C.ar    1  UNL1       -0.0504
     16 C           3.7601   -3.4571    0.0000 C.3     1  UNL1       -0.0397
     17 H           2.5126    1.5691    0.0000 H       1  UNL1        0.0307
     18 H           2.6477    1.9847    0.0000 H       1  UNL1        0.0307
     19 H           4.3125    0.2614    0.0000 H       1  UNL1        0.0352
     20 H           4.8724    1.9847    0.0000 H       1  UNL1        0.0377
     21 H           4.8791    0.5937    0.0000 H       1  UNL1        0.0278
     22 H           5.1355    1.3828    0.0000 H       1  UNL1        0.0278
     23 H           1.8084    1.4113    0.0000 H       1  UNL1        0.0233
     24 H           1.4103    0.6300    0.0000 H       1  UNL1        0.0233
     25 H           2.1916    0.2320    0.0000 H       1  UNL1        0.0233
     26 H           3.1739    3.2552    0.0000 H       1  UNL1        0.0233
     27 H           2.3079    3.3923    0.0000 H       1  UNL1        0.0233
     28 H           2.1707    2.5263    0.0000 H       1  UNL1        0.0233
     29 H           4.5957    3.4571    0.0000 H       1  UNL1        0.1029
     30 H           5.1630   -0.6471    0.0000 H       1  UNL1        0.0620
     31 H           2.3571   -0.6471    0.0000 H       1  UNL1        0.0620
     32 H           5.1630   -2.2671    0.0000 H       1  UNL1        0.0620
     33 H           2.3571   -2.2671    0.0000 H       1  UNL1        0.0620
     34 H           3.1401   -3.4571    0.0000 H       1  UNL1        0.0278
     35 H           3.7601   -4.0771    0.0000 H       1  UNL1        0.0278
     36 H           4.3801   -3.4571    0.0000 H       1  UNL1        0.0278
@<TRIPOS>BOND
     1     1    10    2
     2     2     3    1
     3     2     4    1
     4     2     7    1
     5     2    17    1
     6     3     5    1
     7     3     9    1
     8     3    18    1
     9     4     6    1
    10     4     8    1
    11     4    19    1
    12     5     6    1
    13     5    10    1
    14     5    20    1
    15     6    21    1
    16     6    22    1
    17     7    23    1
    18     7    24    1
    19     7    25    1
    20     8    11   ar
    21     8    12   ar
    22     9    26    1
    23     9    27    1
    24     9    28    1
    25    10    29    1
    26    11    13   ar
    27    11    30    1
    28    12    14   ar
    29    12    31    1
    30    13    15   ar
    31    13    32    1
    32    14    15   ar
    33    14    33    1
    34    15    16    1
    35    16    34    1
    36    16    35    1
    37    16    36    1
