@<TRIPOS>MOLECULE
IMPHY017054
 27 26 0 0 0
SMALL
GASTEIGER

@<TRIPOS>ATOM
      1 O           4.5981   -1.0950    0.0000 O.3     1  UNL1       -0.3803
      2 O           6.3301   -0.0950    0.0000 O.3     1  UNL1       -0.4631
      3 O           5.4641    1.4050    0.0000 O.2     1  UNL1       -0.2479
      4 C           3.7320    0.4050    0.0000 C.3     1  UNL1       -0.0076
      5 C           4.5981   -0.0950    0.0000 C.3     1  UNL1        0.1541
      6 C           2.8660   -0.0950    0.0000 C.3     1  UNL1       -0.0504
      7 C           3.7320    1.4050    0.0000 C.3     1  UNL1       -0.0595
      8 C           2.0000    0.4050    0.0000 C.3     1  UNL1       -0.0649
      9 C           5.4641    0.4050    0.0000 C.2     1  UNL1        0.3363
     10 C           7.1962    0.4050    0.0000 C.3     1  UNL1        0.0897
     11 C           8.0622   -0.0950    0.0000 C.3     1  UNL1       -0.0306
     12 H           4.2690    0.7150    0.0000 H       1  UNL1        0.0328
     13 H           5.1350   -0.4050    0.0000 H       1  UNL1        0.0713
     14 H           2.4675   -0.5699    0.0000 H       1  UNL1        0.0266
     15 H           3.2646   -0.5699    0.0000 H       1  UNL1        0.0266
     16 H           4.3520    1.4050    0.0000 H       1  UNL1        0.0233
     17 H           3.7320    2.0250    0.0000 H       1  UNL1        0.0233
     18 H           3.1120    1.4050    0.0000 H       1  UNL1        0.0233
     19 H           2.3100    0.9419    0.0000 H       1  UNL1        0.0230
     20 H           1.4631    0.7150    0.0000 H       1  UNL1        0.0230
     21 H           1.6900   -0.1319    0.0000 H       1  UNL1        0.0230
     22 H           4.0611   -1.4050    0.0000 H       1  UNL1        0.2105
     23 H           7.5947    0.8799    0.0000 H       1  UNL1        0.0694
     24 H           6.7976    0.8799    0.0000 H       1  UNL1        0.0694
     25 H           7.7522   -0.6319    0.0000 H       1  UNL1        0.0262
     26 H           8.5991   -0.4050    0.0000 H       1  UNL1        0.0262
     27 H           8.3722    0.4419    0.0000 H       1  UNL1        0.0262
@<TRIPOS>BOND
     1     1     5    1
     2     1    22    1
     3     2     9    1
     4     2    10    1
     5     3     9    2
     6     4     5    1
     7     4     6    1
     8     4     7    1
     9     4    12    1
    10     5     9    1
    11     5    13    1
    12     6     8    1
    13     6    14    1
    14     6    15    1
    15     7    16    1
    16     7    17    1
    17     7    18    1
    18     8    19    1
    19     8    20    1
    20     8    21    1
    21    10    11    1
    22    10    23    1
    23    10    24    1
    24    11    25    1
    25    11    26    1
    26    11    27    1
