@<TRIPOS>MOLECULE
IMPHY013029
 42 44 0 0 0
SMALL
GASTEIGER

@<TRIPOS>ATOM
      1 O           7.1796    1.2891    0.0000 O.2     1  UNL1       -0.2755
      2 N           5.4641    1.7500    0.0000 N.am    1  UNL1       -0.2777
      3 N           3.7320    1.7500    0.0000 N.ar    1  UNL1       -0.3121
      4 N           2.2022    2.2500    0.0000 N.ar    1  UNL1       -0.2437
      5 C           4.5981    1.2500    0.0000 C.3     1  UNL1        0.1157
      6 C           4.8073    0.2782    0.0000 C.3     1  UNL1       -0.0040
      7 C           3.7320    0.7500    0.0000 C.3     1  UNL1       -0.0122
      8 C           5.7960    0.1751    0.0000 C.3     1  UNL1        0.0279
      9 C           5.4641    2.7500    0.0000 C.3     1  UNL1        0.0222
     10 C           6.2011    1.0829    0.0000 C.2     1  UNL1        0.2174
     11 C           3.7320    2.7500    0.0000 C.ar    1  UNL1        0.0416
     12 C           4.5981    3.2500    0.0000 C.3     1  UNL1        0.0052
     13 C           3.7320   -0.2500    0.0000 C.3     1  UNL1       -0.0494
     14 C           2.7858    1.4453    0.0000 C.ar    1  UNL1        0.0978
     15 C           2.8660   -0.7500    0.0000 C.3     1  UNL1       -0.0529
     16 C           2.7858    3.0547    0.0000 C.ar    1  UNL1        0.0487
     17 C           2.8660   -1.7500    0.0000 C.3     1  UNL1       -0.0533
     18 C           2.0000   -2.2500    0.0000 C.3     1  UNL1       -0.0559
     19 C           2.0000   -3.2500    0.0000 C.3     1  UNL1       -0.0653
     20 H           4.1908    0.2121    0.0000 H       1  UNL1        0.0309
     21 H           4.8082   -0.3418    0.0000 H       1  UNL1        0.0309
     22 H           3.5200    1.3326    0.0000 H       1  UNL1        0.0304
     23 H           3.1215    0.6423    0.0000 H       1  UNL1        0.0304
     24 H           5.6673   -0.4314    0.0000 H       1  UNL1        0.0360
     25 H           6.3856   -0.0166    0.0000 H       1  UNL1        0.0360
     26 H           6.0747    2.6423    0.0000 H       1  UNL1        0.0469
     27 H           5.6762    3.3326    0.0000 H       1  UNL1        0.0469
     28 H           4.9966    3.7250    0.0000 H       1  UNL1        0.0343
     29 H           4.1996    3.7250    0.0000 H       1  UNL1        0.0343
     30 H           3.9441   -0.8326    0.0000 H       1  UNL1        0.0267
     31 H           4.3426   -0.1423    0.0000 H       1  UNL1        0.0267
     32 H           2.5932    0.8559    0.0000 H       1  UNL1        0.1029
     33 H           2.6540   -0.1674    0.0000 H       1  UNL1        0.0265
     34 H           2.2554   -0.8577    0.0000 H       1  UNL1        0.0265
     35 H           2.5932    3.6440    0.0000 H       1  UNL1        0.0848
     36 H           3.0781   -2.3326    0.0000 H       1  UNL1        0.0265
     37 H           3.4766   -1.6423    0.0000 H       1  UNL1        0.0265
     38 H           1.7880   -1.6674    0.0000 H       1  UNL1        0.0263
     39 H           1.3894   -2.3577    0.0000 H       1  UNL1        0.0263
     40 H           1.3800   -3.2500    0.0000 H       1  UNL1        0.0230
     41 H           2.0000   -3.8700    0.0000 H       1  UNL1        0.0230
     42 H           2.6200   -3.2500    0.0000 H       1  UNL1        0.0230
@<TRIPOS>BOND
     1     1    10    2
     2     2     5    1
     3     2     9    1
     4     2    10   am
     5     3     5    1
     6     3    11   ar
     7     3    14   ar
     8     4    14   ar
     9     4    16   ar
    10     5     6    1
    11     5     7    1
    12     6     8    1
    13     6    20    1
    14     6    21    1
    15     7    13    1
    16     7    22    1
    17     7    23    1
    18     8    10    1
    19     8    24    1
    20     8    25    1
    21     9    12    1
    22     9    26    1
    23     9    27    1
    24    11    12    1
    25    11    16   ar
    26    12    28    1
    27    12    29    1
    28    13    15    1
    29    13    30    1
    30    13    31    1
    31    14    32    1
    32    15    17    1
    33    15    33    1
    34    15    34    1
    35    16    35    1
    36    17    18    1
    37    17    36    1
    38    17    37    1
    39    18    19    1
    40    18    38    1
    41    18    39    1
    42    19    40    1
    43    19    41    1
    44    19    42    1
