@<TRIPOS>MOLECULE
IMPHY007685
 50 52 0 0 0
SMALL
GASTEIGER

@<TRIPOS>ATOM
      1 O           7.8262    0.3862    0.0000 O.3     1  UNL1       -0.4577
      2 O           6.2564    1.1182    0.0000 O.2     1  UNL1       -0.2456
      3 O           2.5736   -2.6814    0.0000 O.3     1  UNL1       -0.4914
      4 O           3.7207   -4.3197    0.0000 O.3     1  UNL1       -0.5033
      5 C           9.6215    1.8845    0.0000 C.3     1  UNL1        0.0104
      6 C           9.1437    3.8330    0.0000 C.3     1  UNL1       -0.0232
      7 C           9.8804    2.8504    0.0000 C.3     1  UNL1       -0.0319
      8 C           8.2488    1.2925    0.0000 C.3     1  UNL1        0.1095
      9 C          11.0205    1.3757    0.0000 C.3     1  UNL1       -0.0435
     10 C           7.9068    2.2322    0.0000 C.3     1  UNL1       -0.0118
     11 C          11.2793    2.3416    0.0000 C.3     1  UNL1       -0.0490
     12 C           9.3627    0.9186    0.0000 C.3     1  UNL1       -0.0557
     13 C           9.2483    4.8276    0.0000 C.3     1  UNL1       -0.0589
     14 C           8.2302    4.2398    0.0000 C.3     1  UNL1       -0.0589
     15 C           6.8300    0.2990    0.0000 C.2     1  UNL1        0.3322
     16 C           6.4074   -0.6073    0.0000 C.2     1  UNL1        0.0231
     17 C           5.4112   -0.6945    0.0000 C.2     1  UNL1       -0.0477
     18 C           4.9886   -1.6008    0.0000 C.ar    1  UNL1       -0.0211
     19 C           3.9924   -1.6879    0.0000 C.ar    1  UNL1       -0.0092
     20 C           5.5622   -2.4199    0.0000 C.ar    1  UNL1       -0.0509
     21 C           3.5698   -2.5942    0.0000 C.ar    1  UNL1        0.1618
     22 C           5.1395   -3.3262    0.0000 C.ar    1  UNL1       -0.0160
     23 C           4.1434   -3.4134    0.0000 C.ar    1  UNL1        0.1585
     24 C           2.0000   -1.8622    0.0000 C.3     1  UNL1        0.0790
     25 H           9.8663    2.2306    0.0000 H       1  UNL1        0.0307
     26 H           8.6808    0.8477    0.0000 H       1  UNL1        0.0740
     27 H          10.8255    0.7871    0.0000 H       1  UNL1        0.0272
     28 H          11.6144    1.1979    0.0000 H       1  UNL1        0.0272
     29 H           7.7125    2.8209    0.0000 H       1  UNL1        0.0304
     30 H           7.3210    2.0290    0.0000 H       1  UNL1        0.0304
     31 H          11.8733    2.1638    0.0000 H       1  UNL1        0.0268
     32 H          11.4742    2.9302    0.0000 H       1  UNL1        0.0268
     33 H           8.7638    1.0790    0.0000 H       1  UNL1        0.0236
     34 H           9.2022    0.3197    0.0000 H       1  UNL1        0.0236
     35 H           9.9616    0.7581    0.0000 H       1  UNL1        0.0236
     36 H           9.8649    4.7627    0.0000 H       1  UNL1        0.0235
     37 H           9.3131    5.4442    0.0000 H       1  UNL1        0.0235
     38 H           8.6317    4.8924    0.0000 H       1  UNL1        0.0235
     39 H           8.4824    4.8062    0.0000 H       1  UNL1        0.0235
     40 H           7.6638    4.4920    0.0000 H       1  UNL1        0.0235
     41 H           7.9780    3.6734    0.0000 H       1  UNL1        0.0235
     42 H           6.7630   -1.1152    0.0000 H       1  UNL1        0.0689
     43 H           5.0556   -0.1866    0.0000 H       1  UNL1        0.0626
     44 H           3.6368   -1.1800    0.0000 H       1  UNL1        0.0661
     45 H           6.1798   -2.3659    0.0000 H       1  UNL1        0.0625
     46 H           5.4952   -3.8341    0.0000 H       1  UNL1        0.0655
     47 H           4.0764   -4.8276    0.0000 H       1  UNL1        0.2923
     48 H           2.5079   -1.5066    0.0000 H       1  UNL1        0.0660
     49 H           1.6444   -1.3544    0.0000 H       1  UNL1        0.0660
     50 H           1.4921   -2.2178    0.0000 H       1  UNL1        0.0660
@<TRIPOS>BOND
     1     1     8    1
     2     1    15    1
     3     2    15    2
     4     3    21    1
     5     3    24    1
     6     4    23    1
     7     4    47    1
     8     5     6    1
     9     5     8    1
    10     5     9    1
    11     5    12    1
    12     6     7    1
    13     6    13    1
    14     6    14    1
    15     7    10    1
    16     7    11    1
    17     7    25    1
    18     8    10    1
    19     8    26    1
    20     9    11    1
    21     9    27    1
    22     9    28    1
    23    10    29    1
    24    10    30    1
    25    11    31    1
    26    11    32    1
    27    12    33    1
    28    12    34    1
    29    12    35    1
    30    13    36    1
    31    13    37    1
    32    13    38    1
    33    14    39    1
    34    14    40    1
    35    14    41    1
    36    15    16    1
    37    16    17    2
    38    16    42    1
    39    17    18    1
    40    17    43    1
    41    18    19   ar
    42    18    20   ar
    43    19    21   ar
    44    19    44    1
    45    20    22   ar
    46    20    45    1
    47    21    23   ar
    48    22    23   ar
    49    22    46    1
    50    24    48    1
    51    24    49    1
    52    24    50    1
