@<TRIPOS>MOLECULE
IMPHY005044
 42 43 0 0 0
SMALL
GASTEIGER

@<TRIPOS>ATOM
      1 O           5.1350   -1.2500    0.0000 O.3     1  UNL1       -0.3313
      2 O           6.8671   -1.2500    0.0000 O.3     1  UNL1       -0.4572
      3 O           5.1350   -4.2500    0.0000 O.3     1  UNL1       -0.3864
      4 O           3.4030   -3.2500    0.0000 O.3     1  UNL1       -0.3865
      5 O           6.8671   -3.2500    0.0000 O.3     1  UNL1       -0.3829
      6 O           2.5369   -1.7500    0.0000 O.3     1  UNL1       -0.3924
      7 O           8.5991   -0.2500    0.0000 O.3     1  UNL1       -0.5033
      8 O           4.2690    4.2500    0.0000 O.3     1  UNL1       -0.4775
      9 O           3.4030    2.7500    0.0000 O.2     1  UNL1       -0.2458
     10 C           5.1350   -3.2500    0.0000 C.3     1  UNL1        0.1152
     11 C           4.2690   -2.7500    0.0000 C.3     1  UNL1        0.1120
     12 C           6.0010   -2.7500    0.0000 C.3     1  UNL1        0.1454
     13 C           4.2690   -1.7500    0.0000 C.3     1  UNL1        0.1140
     14 C           6.0010   -1.7500    0.0000 C.3     1  UNL1        0.2310
     15 C           3.4030   -1.2500    0.0000 C.3     1  UNL1        0.0731
     16 C           6.8671   -0.2500    0.0000 C.ar    1  UNL1        0.1657
     17 C           6.0010    0.2500    0.0000 C.ar    1  UNL1       -0.0090
     18 C           7.7331    0.2500    0.0000 C.ar    1  UNL1        0.1586
     19 C           6.0010    1.2500    0.0000 C.ar    1  UNL1       -0.0211
     20 C           7.7331    1.2500    0.0000 C.ar    1  UNL1       -0.0160
     21 C           6.8671    1.7500    0.0000 C.ar    1  UNL1       -0.0509
     22 C           5.1350    1.7500    0.0000 C.2     1  UNL1       -0.0477
     23 C           5.1350    2.7500    0.0000 C.2     1  UNL1        0.0229
     24 C           4.2690    3.2500    0.0000 C.2     1  UNL1        0.3296
     25 H           5.6720   -3.5600    0.0000 H       1  UNL1        0.0648
     26 H           4.2690   -3.3700    0.0000 H       1  UNL1        0.0647
     27 H           6.5380   -2.4400    0.0000 H       1  UNL1        0.0683
     28 H           4.2690   -1.1300    0.0000 H       1  UNL1        0.0647
     29 H           6.0010   -1.1300    0.0000 H       1  UNL1        0.1084
     30 H           3.8015   -0.7751    0.0000 H       1  UNL1        0.0584
     31 H           3.0044   -0.7751    0.0000 H       1  UNL1        0.0584
     32 H           4.5981   -4.5600    0.0000 H       1  UNL1        0.2100
     33 H           3.4030   -3.8700    0.0000 H       1  UNL1        0.2100
     34 H           6.8671   -3.8700    0.0000 H       1  UNL1        0.2102
     35 H           2.0000   -1.4400    0.0000 H       1  UNL1        0.2095
     36 H           5.4641   -0.0600    0.0000 H       1  UNL1        0.0661
     37 H           8.2700    1.5600    0.0000 H       1  UNL1        0.0655
     38 H           6.8671    2.3700    0.0000 H       1  UNL1        0.0625
     39 H           4.5981    1.4400    0.0000 H       1  UNL1        0.0626
     40 H           9.1360    0.0600    0.0000 H       1  UNL1        0.2923
     41 H           5.6720    3.0600    0.0000 H       1  UNL1        0.0689
     42 H           3.7320    4.5600    0.0000 H       1  UNL1        0.2954
@<TRIPOS>BOND
     1     1    13    1
     2     1    14    1
     3    14     2    1
     4     2    16    1
     5    10     3    1
     6     3    32    1
     7    11     4    1
     8     4    33    1
     9    12     5    1
    10     5    34    1
    11     6    15    1
    12     6    35    1
    13     7    18    1
    14     7    40    1
    15     8    24    1
    16     8    42    1
    17     9    24    2
    18    10    11    1
    19    10    12    1
    20    10    25    1
    21    11    13    1
    22    11    26    1
    23    12    14    1
    24    12    27    1
    25    13    15    1
    26    13    28    1
    27    14    29    1
    28    15    30    1
    29    15    31    1
    30    16    17   ar
    31    16    18   ar
    32    17    19   ar
    33    17    36    1
    34    18    20   ar
    35    19    21   ar
    36    19    22    1
    37    20    21   ar
    38    20    37    1
    39    21    38    1
    40    22    23    2
    41    22    39    1
    42    23    24    1
    43    23    41    1
