@<TRIPOS>MOLECULE
IMPHY015381
 60 59 0 0 0
SMALL
GASTEIGER

@<TRIPOS>ATOM
      1 C          11.5263   -0.0600    0.0000 C.3     1  UNL1       -0.0531
      2 C          10.6603    0.4400    0.0000 C.3     1  UNL1       -0.0531
      3 C          12.3923    0.4400    0.0000 C.3     1  UNL1       -0.0531
      4 C           9.7942   -0.0600    0.0000 C.3     1  UNL1       -0.0531
      5 C          13.2583   -0.0600    0.0000 C.3     1  UNL1       -0.0531
      6 C           8.9282    0.4400    0.0000 C.3     1  UNL1       -0.0530
      7 C          14.1244    0.4400    0.0000 C.3     1  UNL1       -0.0531
      8 C           8.0622   -0.0600    0.0000 C.3     1  UNL1       -0.0528
      9 C          14.9904   -0.0600    0.0000 C.3     1  UNL1       -0.0531
     10 C           7.1962    0.4400    0.0000 C.3     1  UNL1       -0.0496
     11 C          15.8564    0.4400    0.0000 C.3     1  UNL1       -0.0533
     12 C           6.3301   -0.0600    0.0000 C.3     1  UNL1       -0.0345
     13 C          16.7224   -0.0600    0.0000 C.3     1  UNL1       -0.0559
     14 C           5.4641    0.4400    0.0000 C.2     1  UNL1       -0.0850
     15 C           4.5981   -0.0600    0.0000 C.2     1  UNL1       -0.0765
     16 C          17.5885    0.4400    0.0000 C.3     1  UNL1       -0.0653
     17 C           3.7320    0.4400    0.0000 C.3     1  UNL1       -0.0323
     18 C           2.8660   -0.0600    0.0000 C.3     1  UNL1       -0.0522
     19 C           4.5981   -1.0600    0.0000 C.3     1  UNL1       -0.0438
     20 C           2.0000    0.4400    0.0000 C.3     1  UNL1       -0.0650
     21 H          11.1278   -0.5349    0.0000 H       1  UNL1        0.0265
     22 H          11.9248   -0.5349    0.0000 H       1  UNL1        0.0265
     23 H          11.0588    0.9149    0.0000 H       1  UNL1        0.0265
     24 H          10.2617    0.9149    0.0000 H       1  UNL1        0.0265
     25 H          12.7908    0.9149    0.0000 H       1  UNL1        0.0265
     26 H          11.9938    0.9149    0.0000 H       1  UNL1        0.0265
     27 H           9.3957   -0.5349    0.0000 H       1  UNL1        0.0265
     28 H          10.1928   -0.5349    0.0000 H       1  UNL1        0.0265
     29 H          12.8598   -0.5349    0.0000 H       1  UNL1        0.0265
     30 H          13.6569   -0.5349    0.0000 H       1  UNL1        0.0265
     31 H           9.3267    0.9149    0.0000 H       1  UNL1        0.0265
     32 H           8.5297    0.9149    0.0000 H       1  UNL1        0.0265
     33 H          14.5229    0.9149    0.0000 H       1  UNL1        0.0265
     34 H          13.7258    0.9149    0.0000 H       1  UNL1        0.0265
     35 H           7.6636   -0.5349    0.0000 H       1  UNL1        0.0265
     36 H           8.4607   -0.5349    0.0000 H       1  UNL1        0.0265
     37 H          14.5919   -0.5349    0.0000 H       1  UNL1        0.0265
     38 H          15.3889   -0.5349    0.0000 H       1  UNL1        0.0265
     39 H           7.5947    0.9149    0.0000 H       1  UNL1        0.0268
     40 H           6.7976    0.9149    0.0000 H       1  UNL1        0.0268
     41 H          16.2549    0.9149    0.0000 H       1  UNL1        0.0265
     42 H          15.4579    0.9149    0.0000 H       1  UNL1        0.0265
     43 H           5.9316   -0.5349    0.0000 H       1  UNL1        0.0307
     44 H           6.7287   -0.5349    0.0000 H       1  UNL1        0.0307
     45 H          16.3239   -0.5349    0.0000 H       1  UNL1        0.0263
     46 H          17.1210   -0.5349    0.0000 H       1  UNL1        0.0263
     47 H           5.4641    1.0600    0.0000 H       1  UNL1        0.0572
     48 H          17.8985   -0.0969    0.0000 H       1  UNL1        0.0230
     49 H          18.1254    0.7500    0.0000 H       1  UNL1        0.0230
     50 H          17.2785    0.9769    0.0000 H       1  UNL1        0.0230
     51 H           4.1306    0.9149    0.0000 H       1  UNL1        0.0310
     52 H           3.3335    0.9149    0.0000 H       1  UNL1        0.0310
     53 H           2.4675   -0.5349    0.0000 H       1  UNL1        0.0266
     54 H           3.2646   -0.5349    0.0000 H       1  UNL1        0.0266
     55 H           3.9781   -1.0600    0.0000 H       1  UNL1        0.0274
     56 H           4.5981   -1.6800    0.0000 H       1  UNL1        0.0274
     57 H           5.2181   -1.0600    0.0000 H       1  UNL1        0.0274
     58 H           2.3100    0.9769    0.0000 H       1  UNL1        0.0230
     59 H           1.4631    0.7500    0.0000 H       1  UNL1        0.0230
     60 H           1.6900   -0.0969    0.0000 H       1  UNL1        0.0230
@<TRIPOS>BOND
     1     1     2    1
     2     1     3    1
     3     1    21    1
     4     1    22    1
     5     2     4    1
     6     2    23    1
     7     2    24    1
     8     3     5    1
     9     3    25    1
    10     3    26    1
    11     4     6    1
    12     4    27    1
    13     4    28    1
    14     5     7    1
    15     5    29    1
    16     5    30    1
    17     6     8    1
    18     6    31    1
    19     6    32    1
    20     7     9    1
    21     7    33    1
    22     7    34    1
    23     8    10    1
    24     8    35    1
    25     8    36    1
    26     9    11    1
    27     9    37    1
    28     9    38    1
    29    10    12    1
    30    10    39    1
    31    10    40    1
    32    11    13    1
    33    11    41    1
    34    11    42    1
    35    12    14    1
    36    12    43    1
    37    12    44    1
    38    13    16    1
    39    13    45    1
    40    13    46    1
    41    14    15    2
    42    14    47    1
    43    15    17    1
    44    15    19    1
    45    16    48    1
    46    16    49    1
    47    16    50    1
    48    17    18    1
    49    17    51    1
    50    17    52    1
    51    18    20    1
    52    18    53    1
    53    18    54    1
    54    19    55    1
    55    19    56    1
    56    19    57    1
    57    20    58    1
    58    20    59    1
    59    20    60    1
