@<TRIPOS>MOLECULE
IMPHY011240
 31 31 0 0 0
SMALL
GASTEIGER

@<TRIPOS>ATOM
      1 O           4.5981   -2.0000    0.0000 O.2     1  UNL1       -0.2974
      2 C           4.5981    1.0000    0.0000 C.3     1  UNL1       -0.0071
      3 C           3.7320    0.5000    0.0000 C.3     1  UNL1       -0.0049
      4 C           5.4641    0.5000    0.0000 C.3     1  UNL1       -0.0369
      5 C           3.7320   -0.5000    0.0000 C.3     1  UNL1        0.0131
      6 C           5.4641   -0.5000    0.0000 C.3     1  UNL1        0.0066
      7 C           4.0981    1.8660    0.0000 C.3     1  UNL1       -0.0555
      8 C           4.5981   -1.0000    0.0000 C.2     1  UNL1        0.1340
      9 C           2.8660    1.0000    0.0000 C.2     1  UNL1       -0.0754
     10 C           5.0981    1.8660    0.0000 C.2     1  UNL1       -0.0846
     11 C           2.0000    0.5000    0.0000 C.3     1  UNL1       -0.0437
     12 C           2.8660    2.0000    0.0000 C.2     1  UNL1       -0.0994
     13 C           6.0981    1.8660    0.0000 C.2     1  UNL1       -0.1021
     14 H           3.7320    1.1200    0.0000 H       1  UNL1        0.0358
     15 H           6.0747    0.3923    0.0000 H       1  UNL1        0.0278
     16 H           5.6762    1.0826    0.0000 H       1  UNL1        0.0278
     17 H           3.1215   -0.3923    0.0000 H       1  UNL1        0.0348
     18 H           3.5200   -1.0826    0.0000 H       1  UNL1        0.0348
     19 H           5.6762   -1.0826    0.0000 H       1  UNL1        0.0342
     20 H           6.0747   -0.3923    0.0000 H       1  UNL1        0.0342
     21 H           4.6350    2.1760    0.0000 H       1  UNL1        0.0238
     22 H           3.7881    2.4030    0.0000 H       1  UNL1        0.0238
     23 H           3.5611    1.5560    0.0000 H       1  UNL1        0.0238
     24 H           4.7881    2.4030    0.0000 H       1  UNL1        0.0572
     25 H           1.6900    1.0369    0.0000 H       1  UNL1        0.0274
     26 H           1.4631    0.1900    0.0000 H       1  UNL1        0.0274
     27 H           2.3100   -0.0369    0.0000 H       1  UNL1        0.0274
     28 H           3.4030    2.3100    0.0000 H       1  UNL1        0.0534
     29 H           2.3291    2.3100    0.0000 H       1  UNL1        0.0534
     30 H           6.4081    1.3291    0.0000 H       1  UNL1        0.0532
     31 H           6.4081    2.4030    0.0000 H       1  UNL1        0.0532
@<TRIPOS>BOND
     1     1     8    2
     2     2     3    1
     3     2     4    1
     4     2     7    1
     5     2    10    1
     6     3     5    1
     7     3     9    1
     8     3    14    1
     9     4     6    1
    10     4    15    1
    11     4    16    1
    12     5     8    1
    13     5    17    1
    14     5    18    1
    15     6     8    1
    16     6    19    1
    17     6    20    1
    18     7    21    1
    19     7    22    1
    20     7    23    1
    21     9    11    1
    22     9    12    2
    23    10    13    2
    24    10    24    1
    25    11    25    1
    26    11    26    1
    27    11    27    1
    28    12    28    1
    29    12    29    1
    30    13    30    1
    31    13    31    1
