@<TRIPOS>MOLECULE
IMPHY002640
 39 40 0 0 0
SMALL
GASTEIGER

@<TRIPOS>ATOM
      1 O           4.0000    1.0987    0.0000 O.3     1  UNL1       -0.3839
      2 O           2.0000   -0.6333    0.0000 O.2     1  UNL1       -0.2960
      3 C           6.2320   -0.7673    0.0000 C.3     1  UNL1       -0.0254
      4 C           6.2320    0.2327    0.0000 C.3     1  UNL1       -0.0118
      5 C           5.3660   -1.2673    0.0000 C.3     1  UNL1       -0.0442
      6 C           5.3660    0.7327    0.0000 C.3     1  UNL1       -0.0127
      7 C           7.1260   -1.3020    0.0000 C.3     1  UNL1       -0.0468
      8 C           4.5000    0.2327    0.0000 C.3     1  UNL1        0.0939
      9 C           4.5000   -0.7673    0.0000 C.3     1  UNL1       -0.0192
     10 C           7.1260    0.7674    0.0000 C.2     1  UNL1       -0.0729
     11 C           8.0321   -0.7881    0.0000 C.3     1  UNL1       -0.0489
     12 C           6.2320   -1.7673    0.0000 C.3     1  UNL1       -0.0590
     13 C           8.0321    0.2535    0.0000 C.3     1  UNL1       -0.0317
     14 C           3.5000    0.2327    0.0000 C.2     1  UNL1        0.0160
     15 C           7.1144    1.7673    0.0000 C.2     1  UNL1       -0.0992
     16 C           3.0000   -0.6333    0.0000 C.2     1  UNL1        0.1484
     17 C           3.0000    1.0987    0.0000 C.2     1  UNL1       -0.0897
     18 H           6.2255    1.0827    0.0000 H       1  UNL1        0.0352
     19 H           4.9675   -1.7422    0.0000 H       1  UNL1        0.0272
     20 H           5.7646   -1.7422    0.0000 H       1  UNL1        0.0272
     21 H           5.7646    1.2076    0.0000 H       1  UNL1        0.0302
     22 H           4.9675    1.2076    0.0000 H       1  UNL1        0.0302
     23 H           6.7214   -1.7718    0.0000 H       1  UNL1        0.0271
     24 H           7.5196   -1.7810    0.0000 H       1  UNL1        0.0271
     25 H           3.8894   -0.6596    0.0000 H       1  UNL1        0.0296
     26 H           4.2880   -1.3499    0.0000 H       1  UNL1        0.0296
     27 H           8.2411   -1.3718    0.0000 H       1  UNL1        0.0268
     28 H           8.6429   -0.6820    0.0000 H       1  UNL1        0.0268
     29 H           5.6120   -1.7673    0.0000 H       1  UNL1        0.0235
     30 H           6.2320   -2.3873    0.0000 H       1  UNL1        0.0235
     31 H           6.8520   -1.7673    0.0000 H       1  UNL1        0.0235
     32 H           8.6429    0.1474    0.0000 H       1  UNL1        0.0310
     33 H           8.2411    0.8372    0.0000 H       1  UNL1        0.0310
     34 H           4.3100    1.6357    0.0000 H       1  UNL1        0.2106
     35 H           7.6477    2.0835    0.0000 H       1  UNL1        0.0534
     36 H           6.5740    2.0711    0.0000 H       1  UNL1        0.0534
     37 H           3.3100   -1.1703    0.0000 H       1  UNL1        0.1079
     38 H           3.3100    1.6357    0.0000 H       1  UNL1        0.0539
     39 H           2.3800    1.0987    0.0000 H       1  UNL1        0.0539
@<TRIPOS>BOND
     1     8     1    1
     2     1    34    1
     3     2    16    2
     4     3     4    1
     5     3     5    1
     6     3     7    1
     7     3    12    1
     8     4     6    1
     9     4    10    1
    10     4    18    1
    11     5     9    1
    12     5    19    1
    13     5    20    1
    14     6     8    1
    15     6    21    1
    16     6    22    1
    17     7    11    1
    18     7    23    1
    19     7    24    1
    20     8     9    1
    21     8    14    1
    22     9    25    1
    23     9    26    1
    24    10    13    1
    25    10    15    2
    26    11    13    1
    27    11    27    1
    28    11    28    1
    29    12    29    1
    30    12    30    1
    31    12    31    1
    32    13    32    1
    33    13    33    1
    34    14    16    1
    35    14    17    2
    36    15    35    1
    37    15    36    1
    38    16    37    1
    39    17    38    1
    40    17    39    1
