@<TRIPOS>MOLECULE
IMPHY013644
 45 49 0 0 0
SMALL
GASTEIGER

@<TRIPOS>ATOM
      1 O           7.1378   -1.8852    0.0000 O.3     1  UNL1       -0.3559
      2 O           4.8501   -1.1419    0.0000 O.3     1  UNL1       -0.3342
      3 O           4.7931   -0.0541    0.0000 O.3     1  UNL1       -0.4570
      4 O           4.7771    3.0151    0.0000 O.2     1  UNL1       -0.4217
      5 O           6.5469    2.9773    0.0000 O.2     1  UNL1       -0.2447
      6 C           6.4681   -1.1419    0.0000 C.3     1  UNL1        0.1552
      7 C           6.1591   -2.0930    0.0000 C.3     1  UNL1        0.1229
      8 C           5.6591   -0.5541    0.0000 C.3     1  UNL1        0.2429
      9 C           5.1591   -2.0930    0.0000 C.3     1  UNL1        0.0834
     10 C           6.5251   -0.0541    0.0000 C.3     1  UNL1        0.0288
     11 C           6.5251    0.9459    0.0000 C.3     1  UNL1        0.0270
     12 C           5.8501   -3.0440    0.0000 C.3     1  UNL1       -0.0309
     13 C           5.6591    1.4459    0.0000 C.ar    1  UNL1        0.0891
     14 C           4.7931    0.9459    0.0000 C.ar    1  UNL1        0.1460
     15 C           7.0251    1.8119    0.0000 C.3     1  UNL1       -0.0515
     16 C           7.5251    0.9459    0.0000 C.2     1  UNL1       -0.0804
     17 C           3.8831    1.4527    0.0000 C.ar    1  UNL1        0.0625
     18 C           5.6752    2.4874    0.0000 C.ar    1  UNL1        0.3448
     19 C           3.8751    2.4943    0.0000 C.ar    1  UNL1        0.1428
     20 C           2.9562    0.8886    0.0000 C.ar    1  UNL1       -0.0363
     21 C           8.0251    0.0798    0.0000 C.2     1  UNL1       -0.1018
     22 C           2.9396    3.0440    0.0000 C.ar    1  UNL1       -0.0185
     23 C           2.0084    1.4166    0.0000 C.ar    1  UNL1       -0.0579
     24 C           2.9755   -0.1112    0.0000 C.3     1  UNL1       -0.0389
     25 C           2.0000    2.5015    0.0000 C.ar    1  UNL1       -0.0580
     26 H           6.8829   -0.6811    0.0000 H       1  UNL1        0.0692
     27 H           4.5527   -2.2219    0.0000 H       1  UNL1        0.0591
     28 H           5.2239   -2.7096    0.0000 H       1  UNL1        0.0591
     29 H           6.7372   -0.6367    0.0000 H       1  UNL1        0.0341
     30 H           7.1357    0.0535    0.0000 H       1  UNL1        0.0341
     31 H           5.2604   -2.8524    0.0000 H       1  UNL1        0.0259
     32 H           5.6585   -3.6337    0.0000 H       1  UNL1        0.0259
     33 H           6.4398   -3.2356    0.0000 H       1  UNL1        0.0259
     34 H           7.5621    1.5019    0.0000 H       1  UNL1        0.0241
     35 H           7.3351    2.3488    0.0000 H       1  UNL1        0.0241
     36 H           6.4882    2.1219    0.0000 H       1  UNL1        0.0241
     37 H           7.8351    1.4828    0.0000 H       1  UNL1        0.0575
     38 H           7.7151   -0.4571    0.0000 H       1  UNL1        0.0532
     39 H           8.6451    0.0798    0.0000 H       1  UNL1        0.0532
     40 H           2.9420    3.6640    0.0000 H       1  UNL1        0.0654
     41 H           1.4750    1.1004    0.0000 H       1  UNL1        0.0620
     42 H           2.3556   -0.1231    0.0000 H       1  UNL1        0.0278
     43 H           2.9875   -0.7311    0.0000 H       1  UNL1        0.0278
     44 H           3.5954   -0.0992    0.0000 H       1  UNL1        0.0278
     45 H           1.4619    2.8095    0.0000 H       1  UNL1        0.0619
@<TRIPOS>BOND
     1     1     6    1
     2     1     7    1
     3     8     2    1
     4     2     9    1
     5     3     8    1
     6     3    14    1
     7     4    18   ar
     8     4    19   ar
     9     5    18    2
    10     6     7    1
    11     6     8    1
    12     6    26    1
    13     7     9    1
    14     7    12    1
    15     8    10    1
    16     9    27    1
    17     9    28    1
    18    10    11    1
    19    10    29    1
    20    10    30    1
    21    11    13    1
    22    11    15    1
    23    11    16    1
    24    12    31    1
    25    12    32    1
    26    12    33    1
    27    13    14   ar
    28    13    18   ar
    29    14    17   ar
    30    15    34    1
    31    15    35    1
    32    15    36    1
    33    16    21    2
    34    16    37    1
    35    17    19   ar
    36    17    20   ar
    37    19    22   ar
    38    20    23   ar
    39    20    24    1
    40    21    38    1
    41    21    39    1
    42    22    25   ar
    43    22    40    1
    44    23    25   ar
    45    23    41    1
    46    24    42    1
    47    24    43    1
    48    24    44    1
    49    25    45    1
