@<TRIPOS>MOLECULE
IMPHY011629
 24 24 0 0 0
SMALL
GASTEIGER

@<TRIPOS>ATOM
      1 O           2.8660   -1.4050    0.0000 O.3     1  UNL1       -0.4914
      2 O           4.5981   -2.4050    0.0000 O.3     1  UNL1       -0.5033
      3 C           4.5981    0.5950    0.0000 C.ar    1  UNL1       -0.0216
      4 C           3.7320   -0.9050    0.0000 C.ar    1  UNL1        0.1618
      5 C           3.7320    0.0950    0.0000 C.ar    1  UNL1       -0.0092
      6 C           5.4641    0.0950    0.0000 C.ar    1  UNL1       -0.0509
      7 C           4.5981   -1.4050    0.0000 C.ar    1  UNL1        0.1585
      8 C           5.4641   -0.9050    0.0000 C.ar    1  UNL1       -0.0160
      9 C           4.5981    1.5950    0.0000 C.2     1  UNL1       -0.0587
     10 C           5.4641    2.0950    0.0000 C.2     1  UNL1       -0.0865
     11 C           6.3301    1.5950    0.0000 C.3     1  UNL1       -0.0465
     12 C           2.0000   -0.9050    0.0000 C.3     1  UNL1        0.0790
     13 H           3.1951    0.4050    0.0000 H       1  UNL1        0.0661
     14 H           6.0010    0.4050    0.0000 H       1  UNL1        0.0625
     15 H           6.0010   -1.2150    0.0000 H       1  UNL1        0.0655
     16 H           4.0611    1.9050    0.0000 H       1  UNL1        0.0620
     17 H           5.4641    2.7150    0.0000 H       1  UNL1        0.0569
     18 H           6.0201    1.0581    0.0000 H       1  UNL1        0.0272
     19 H           6.8671    1.2850    0.0000 H       1  UNL1        0.0272
     20 H           6.6401    2.1319    0.0000 H       1  UNL1        0.0272
     21 H           2.3100   -0.3681    0.0000 H       1  UNL1        0.0660
     22 H           1.4631   -0.5950    0.0000 H       1  UNL1        0.0660
     23 H           1.6900   -1.4419    0.0000 H       1  UNL1        0.0660
     24 H           5.1350   -2.7150    0.0000 H       1  UNL1        0.2923
@<TRIPOS>BOND
     1     1     4    1
     2     1    12    1
     3     2     7    1
     4     2    24    1
     5     3     5   ar
     6     3     6   ar
     7     3     9    1
     8     4     5   ar
     9     4     7   ar
    10     5    13    1
    11     6     8   ar
    12     6    14    1
    13     7     8   ar
    14     8    15    1
    15     9    10    2
    16     9    16    1
    17    10    11    1
    18    10    17    1
    19    11    18    1
    20    11    19    1
    21    11    20    1
    22    12    21    1
    23    12    22    1
    24    12    23    1
