@<TRIPOS>MOLECULE
IMPHY013165
 86 90 0 0 0
SMALL
GASTEIGER

@<TRIPOS>ATOM
      1 O           4.7950    0.0575    0.0000 O.3     1  UNL1       -0.3912
      2 O           2.0000   -3.4948    0.0000 O.2     1  UNL1       -0.2968
      3 O           9.9229   -0.9425    0.0000 O.2     1  UNL1       -0.2924
      4 O          11.6619    2.8436    0.0000 O.3     1  UNL1       -0.3615
      5 O           9.2713    2.7138    0.0000 O.3     1  UNL1       -0.4588
      6 O          10.5605    3.8705    0.0000 O.2     1  UNL1       -0.2512
      7 C           6.5271   -1.9425    0.0000 C.3     1  UNL1       -0.0169
      8 C           5.6610   -1.4425    0.0000 C.3     1  UNL1       -0.0028
      9 C           4.7510   -1.9493    0.0000 C.3     1  UNL1       -0.0223
     10 C           7.3931   -1.4425    0.0000 C.3     1  UNL1        0.0024
     11 C           4.7430   -2.9909    0.0000 C.3     1  UNL1       -0.0234
     12 C           6.5431   -2.9840    0.0000 C.3     1  UNL1       -0.0462
     13 C           5.6451   -3.5118    0.0000 C.3     1  UNL1       -0.0483
     14 C           5.6610   -0.4425    0.0000 C.3     1  UNL1        0.0628
     15 C           3.8076   -3.5407    0.0000 C.3     1  UNL1        0.0267
     16 C           7.3931   -0.4425    0.0000 C.2     1  UNL1       -0.0535
     17 C           3.8242   -1.3853    0.0000 C.3     1  UNL1       -0.0403
     18 C           6.5271    0.0575    0.0000 C.3     1  UNL1       -0.0041
     19 C           7.1698   -2.7085    0.0000 C.3     1  UNL1       -0.0584
     20 C           8.3393   -1.7472    0.0000 C.3     1  UNL1        0.0198
     21 C           4.7587   -0.9494    0.0000 C.3     1  UNL1       -0.0589
     22 C           7.7352   -2.3822    0.0000 C.3     1  UNL1       -0.0549
     23 C           2.8763   -1.9132    0.0000 C.3     1  UNL1        0.0069
     24 C           8.3393   -0.1378    0.0000 C.2     1  UNL1       -0.0021
     25 C           2.8680   -2.9982    0.0000 C.2     1  UNL1        0.1392
     26 C           8.9229   -0.9425    0.0000 C.2     1  UNL1        0.1603
     27 C           3.3109   -4.4086    0.0000 C.3     1  UNL1       -0.0528
     28 C           4.3109   -4.4048    0.0000 C.3     1  UNL1       -0.0528
     29 C           8.6500    0.8128    0.0000 C.3     1  UNL1       -0.0120
     30 C           9.6285    1.0190    0.0000 C.3     1  UNL1       -0.0064
     31 C           7.9821    1.5570    0.0000 C.3     1  UNL1       -0.0582
     32 C           9.9391    1.9695    0.0000 C.3     1  UNL1        0.1323
     33 C          10.9176    2.1757    0.0000 C.3     1  UNL1        0.1245
     34 C          11.8682    1.8650    0.0000 C.3     1  UNL1        0.0941
     35 C          12.8467    2.0713    0.0000 C.3     1  UNL1       -0.0335
     36 C          11.5575    0.9145    0.0000 C.3     1  UNL1       -0.0335
     37 C           9.5820    3.6643    0.0000 C.2     1  UNL1        0.3043
     38 C           8.9141    4.4086    0.0000 C.3     1  UNL1        0.0332
     39 H           6.3972   -1.0175    0.0000 H       1  UNL1        0.0337
     40 H           4.7463   -3.8409    0.0000 H       1  UNL1        0.0315
     41 H           6.7612   -3.5644    0.0000 H       1  UNL1        0.0271
     42 H           7.1523   -2.8685    0.0000 H       1  UNL1        0.0271
     43 H           5.2478   -3.9877    0.0000 H       1  UNL1        0.0269
     44 H           6.0460   -3.9846    0.0000 H       1  UNL1        0.0269
     45 H           5.6610    0.1775    0.0000 H       1  UNL1        0.0599
     46 H           4.2324   -0.9186    0.0000 H       1  UNL1        0.0275
     47 H           3.4343   -0.9032    0.0000 H       1  UNL1        0.0275
     48 H           6.9256    0.5324    0.0000 H       1  UNL1        0.0335
     49 H           6.1285    0.5324    0.0000 H       1  UNL1        0.0335
     50 H           6.6949   -3.1071    0.0000 H       1  UNL1        0.0235
     51 H           7.5684   -3.1835    0.0000 H       1  UNL1        0.0235
     52 H           7.6448   -2.3100    0.0000 H       1  UNL1        0.0235
     53 H           8.0883   -2.3141    0.0000 H       1  UNL1        0.0354
     54 H           8.8767   -2.0565    0.0000 H       1  UNL1        0.0354
     55 H           5.3787   -0.9542    0.0000 H       1  UNL1        0.0235
     56 H           4.7635   -0.3294    0.0000 H       1  UNL1        0.0235
     57 H           4.1388   -0.9446    0.0000 H       1  UNL1        0.0235
     58 H           7.1526   -2.5943    0.0000 H       1  UNL1        0.0238
     59 H           7.9473   -2.9648    0.0000 H       1  UNL1        0.0238
     60 H           8.3178   -2.1700    0.0000 H       1  UNL1        0.0238
     61 H           2.6718   -1.3279    0.0000 H       1  UNL1        0.0342
     62 H           2.2647   -2.0146    0.0000 H       1  UNL1        0.0342
     63 H           2.7728   -4.1007    0.0000 H       1  UNL1        0.0239
     64 H           3.0030   -4.9467    0.0000 H       1  UNL1        0.0239
     65 H           3.8490   -4.7165    0.0000 H       1  UNL1        0.0239
     66 H           3.7752   -4.7168    0.0000 H       1  UNL1        0.0239
     67 H           4.6230   -4.9405    0.0000 H       1  UNL1        0.0239
     68 H           4.8466   -4.0927    0.0000 H       1  UNL1        0.0239
     69 H           8.0433    0.6849    0.0000 H       1  UNL1        0.0348
     70 H           4.7950    0.6775    0.0000 H       1  UNL1        0.2098
     71 H           9.6490    0.3993    0.0000 H       1  UNL1        0.0307
     72 H          10.2423    0.9316    0.0000 H       1  UNL1        0.0307
     73 H           8.4436    1.9711    0.0000 H       1  UNL1        0.0236
     74 H           7.5681    2.0185    0.0000 H       1  UNL1        0.0236
     75 H           7.5207    1.1430    0.0000 H       1  UNL1        0.0236
     76 H          10.1317    2.5588    0.0000 H       1  UNL1        0.0761
     77 H          10.5331    2.9337    0.0000 H       1  UNL1        0.0662
     78 H          12.9745    1.4646    0.0000 H       1  UNL1        0.0258
     79 H          13.4533    2.1991    0.0000 H       1  UNL1        0.0258
     80 H          12.7188    2.6779    0.0000 H       1  UNL1        0.0258
     81 H          10.9682    1.1071    0.0000 H       1  UNL1        0.0258
     82 H          11.3649    0.3252    0.0000 H       1  UNL1        0.0258
     83 H          12.1468    0.7219    0.0000 H       1  UNL1        0.0258
     84 H           9.3756    4.8227    0.0000 H       1  UNL1        0.0342
     85 H           8.5000    4.8701    0.0000 H       1  UNL1        0.0342
     86 H           8.4526    3.9946    0.0000 H       1  UNL1        0.0342
@<TRIPOS>BOND
     1    14     1    1
     2     1    70    1
     3     2    25    2
     4     3    26    2
     5     4    33    1
     6     4    34    1
     7    32     5    1
     8     5    37    1
     9     6    37    2
    10     7     8    1
    11     7    10    1
    12     7    12    1
    13     7    19    1
    14     8     9    1
    15     8    14    1
    16     8    39    1
    17     9    11    1
    18     9    17    1
    19     9    21    1
    20    10    16    1
    21    10    20    1
    22    10    22    1
    23    11    13    1
    24    11    15    1
    25    11    40    1
    26    12    13    1
    27    12    41    1
    28    12    42    1
    29    13    43    1
    30    13    44    1
    31    14    18    1
    32    14    45    1
    33    15    25    1
    34    15    27    1
    35    15    28    1
    36    16    18    1
    37    16    24    2
    38    17    23    1
    39    17    46    1
    40    17    47    1
    41    18    48    1
    42    18    49    1
    43    19    50    1
    44    19    51    1
    45    19    52    1
    46    20    26    1
    47    20    53    1
    48    20    54    1
    49    21    55    1
    50    21    56    1
    51    21    57    1
    52    22    58    1
    53    22    59    1
    54    22    60    1
    55    23    25    1
    56    23    61    1
    57    23    62    1
    58    24    26    1
    59    24    29    1
    60    27    63    1
    61    27    64    1
    62    27    65    1
    63    28    66    1
    64    28    67    1
    65    28    68    1
    66    29    30    1
    67    29    31    1
    68    29    69    1
    69    30    32    1
    70    30    71    1
    71    30    72    1
    72    31    73    1
    73    31    74    1
    74    31    75    1
    75    32    33    1
    76    32    76    1
    77    33    34    1
    78    33    77    1
    79    34    35    1
    80    34    36    1
    81    35    78    1
    82    35    79    1
    83    35    80    1
    84    36    81    1
    85    36    82    1
    86    36    83    1
    87    37    38    1
    88    38    84    1
    89    38    85    1
    90    38    86    1
