@<TRIPOS>MOLECULE
IMPHY013471
 75 79 0 0 0
SMALL
GASTEIGER

@<TRIPOS>ATOM
      1 O           2.7841   -1.1614    0.0000 O.3     1  UNL1       -0.3649
      2 O           4.6501    0.3386    0.0000 O.3     1  UNL1       -0.3656
      3 O           4.0054   -2.5046    0.0000 O.3     1  UNL1       -0.4575
      4 O           3.9547    2.3824    0.0000 O.3     1  UNL1       -0.4609
      5 O           4.6365   -4.0434    0.0000 O.2     1  UNL1       -0.2456
      6 O           4.5537    3.9339    0.0000 O.2     1  UNL1       -0.2456
      7 O           9.4330    0.5775    0.0000 O.3     1  UNL1       -0.3697
      8 O          11.0682    0.0180    0.0000 O.3     1  UNL1       -0.3892
      9 C           2.9180   -0.6614    0.0000 C.3     1  UNL1        0.0500
     10 C           3.7841   -1.1614    0.0000 C.3     1  UNL1        0.1282
     11 C           2.9180    0.3386    0.0000 C.3     1  UNL1        0.0464
     12 C           4.6501   -0.6614    0.0000 C.3     1  UNL1        0.0945
     13 C           3.2847   -1.5904    0.0000 C.3     1  UNL1        0.1147
     14 C           3.2841   -2.0274    0.0000 C.3     1  UNL1        0.0807
     15 C           4.2834   -1.5904    0.0000 C.3     1  UNL1        0.0142
     16 C           3.7841    0.8386    0.0000 C.3     1  UNL1        0.0869
     17 C           2.0520   -1.1614    0.0000 C.3     1  UNL1       -0.0526
     18 C           2.0080    0.8455    0.0000 C.3     1  UNL1       -0.0372
     19 C           3.2531    1.4534    0.0000 C.3     1  UNL1        0.1018
     20 C           3.8001    1.8801    0.0000 C.2     1  UNL1       -0.0560
     21 C           2.0000    1.8871    0.0000 C.3     1  UNL1       -0.0312
     22 C           2.9021    2.4079    0.0000 C.2     1  UNL1       -0.0741
     23 C           4.9989   -3.1113    0.0000 C.2     1  UNL1        0.3322
     24 C           2.9059    3.4079    0.0000 C.3     1  UNL1       -0.0437
     25 C           4.9354    3.0096    0.0000 C.2     1  UNL1        0.3319
     26 C           6.1413   -3.3350    0.0000 C.2     1  UNL1        0.0225
     27 C           6.0729    3.2569    0.0000 C.2     1  UNL1        0.0216
     28 C           7.2902   -3.1478    0.0000 C.2     1  UNL1       -0.0552
     29 C           7.2254    3.0936    0.0000 C.2     1  UNL1       -0.0637
     30 C           8.3025   -2.5730    0.0000 C.2     1  UNL1       -0.0630
     31 C           8.2494    2.5399    0.0000 C.3     1  UNL1       -0.0079
     32 C           7.5384    4.0434    0.0000 C.3     1  UNL1       -0.0432
     33 C           9.0519   -1.6822    0.0000 C.2     1  UNL1       -0.0532
     34 C           9.0172    1.6648    0.0000 C.3     1  UNL1        0.0522
     35 C           9.4451   -0.5865    0.0000 C.3     1  UNL1        0.1026
     36 C          10.4312   -0.7528    0.0000 C.3     1  UNL1        0.0821
     37 C          10.7802   -1.6899    0.0000 C.3     1  UNL1       -0.0362
     38 H           5.3862   -0.2364    0.0000 H       1  UNL1        0.0627
     39 H           2.5192   -1.9600    0.0000 H       1  UNL1        0.0741
     40 H           2.8091   -2.4259    0.0000 H       1  UNL1        0.0590
     41 H           3.7590   -2.4259    0.0000 H       1  UNL1        0.0590
     42 H           4.2060   -2.2056    0.0000 H       1  UNL1        0.0327
     43 H           4.8841   -1.7442    0.0000 H       1  UNL1        0.0327
     44 H           4.5202    1.2636    0.0000 H       1  UNL1        0.0647
     45 H           1.7420   -0.6245    0.0000 H       1  UNL1        0.0237
     46 H           1.5151   -1.4714    0.0000 H       1  UNL1        0.0237
     47 H           2.3620   -1.6983    0.0000 H       1  UNL1        0.0237
     48 H           1.3964    0.9468    0.0000 H       1  UNL1        0.0276
     49 H           1.8035    0.2602    0.0000 H       1  UNL1        0.0276
     50 H           2.9458    1.9919    0.0000 H       1  UNL1        0.0704
     51 H           3.8060    1.1730    0.0000 H       1  UNL1        0.0704
     52 H           4.3406    2.1839    0.0000 H       1  UNL1        0.0597
     53 H           1.7864    2.4691    0.0000 H       1  UNL1        0.0310
     54 H           1.3900    1.7763    0.0000 H       1  UNL1        0.0310
     55 H           3.5259    3.4055    0.0000 H       1  UNL1        0.0274
     56 H           2.9083    4.0279    0.0000 H       1  UNL1        0.0274
     57 H           2.2859    3.4103    0.0000 H       1  UNL1        0.0274
     58 H           6.1314   -3.9549    0.0000 H       1  UNL1        0.0689
     59 H           6.0502    3.8765    0.0000 H       1  UNL1        0.0688
     60 H           7.4964   -3.7325    0.0000 H       1  UNL1        0.0620
     61 H           8.6990   -3.0496    0.0000 H       1  UNL1        0.0615
     62 H           8.8389    2.7319    0.0000 H       1  UNL1        0.0332
     63 H           7.8629    2.0551    0.0000 H       1  UNL1        0.0332
     64 H           8.1272    3.8494    0.0000 H       1  UNL1        0.0274
     65 H           7.7324    4.6322    0.0000 H       1  UNL1        0.0274
     66 H           6.9495    4.2374    0.0000 H       1  UNL1        0.0274
     67 H           9.5893   -1.9913    0.0000 H       1  UNL1        0.0598
     68 H           9.6367    1.6400    0.0000 H       1  UNL1        0.0563
     69 H           8.4863    1.3446    0.0000 H       1  UNL1        0.0563
     70 H          10.0913   -0.0343    0.0000 H       1  UNL1        0.0666
     71 H          11.0425   -0.8559    0.0000 H       1  UNL1        0.0619
     72 H          10.1992   -1.9063    0.0000 H       1  UNL1        0.0255
     73 H          10.9966   -2.2709    0.0000 H       1  UNL1        0.0255
     74 H          11.3612   -1.4735    0.0000 H       1  UNL1        0.0255
     75 H          11.6796   -0.0851    0.0000 H       1  UNL1        0.2099
@<TRIPOS>BOND
     1    10     1    1
     2     1    14    1
     3     2    12    1
     4     2    16    1
     5     3    13    1
     6     3    23    1
     7     4    19    1
     8     4    25    1
     9     5    23    2
    10     6    25    2
    11     7    34    1
    12     7    35    1
    13    36     8    1
    14     8    75    1
    15     9    10    1
    16     9    11    1
    17     9    13    1
    18     9    17    1
    19    10    12    1
    20    10    14    1
    21    11    16    1
    22    11    18    1
    23    11    19    1
    24    12    15    1
    25    12    38    1
    26    13    15    1
    27    13    39    1
    28    14    40    1
    29    14    41    1
    30    15    42    1
    31    15    43    1
    32    16    20    1
    33    16    44    1
    34    17    45    1
    35    17    46    1
    36    17    47    1
    37    18    21    1
    38    18    48    1
    39    18    49    1
    40    19    50    1
    41    19    51    1
    42    20    22    2
    43    20    52    1
    44    21    22    1
    45    21    53    1
    46    21    54    1
    47    22    24    1
    48    23    26    1
    49    24    55    1
    50    24    56    1
    51    24    57    1
    52    25    27    1
    53    26    28    2
    54    26    58    1
    55    27    29    2
    56    27    59    1
    57    28    30    1
    58    28    60    1
    59    29    31    1
    60    29    32    1
    61    30    33    2
    62    30    61    1
    63    31    34    1
    64    31    62    1
    65    31    63    1
    66    32    64    1
    67    32    65    1
    68    32    66    1
    69    33    35    1
    70    33    67    1
    71    34    68    1
    72    34    69    1
    73    35    36    1
    74    35    70    1
    75    36    37    1
    76    36    71    1
    77    37    72    1
    78    37    73    1
    79    37    74    1
