@<TRIPOS>MOLECULE
IMPHY016735
 32 31 0 0 0
SMALL
GASTEIGER

@<TRIPOS>ATOM
      1 O           8.0622    0.0000    0.0000 O.3     1  UNL1       -0.4677
      2 O           7.1962    1.5000    0.0000 O.2     1  UNL1       -0.2505
      3 C           6.3301    0.0000    0.0000 C.3     1  UNL1        0.0562
      4 C           5.4641    0.5000    0.0000 C.3     1  UNL1       -0.0401
      5 C           4.5981   -0.0000    0.0000 C.3     1  UNL1       -0.0523
      6 C           3.7320    0.5000    0.0000 C.3     1  UNL1       -0.0533
      7 C           6.3301   -1.0000    0.0000 C.3     1  UNL1       -0.0430
      8 C           2.8660   -0.0000    0.0000 C.3     1  UNL1       -0.0559
      9 C           7.1962    0.5000    0.0000 C.2     1  UNL1        0.3099
     10 C           5.4641   -1.5000    0.0000 C.3     1  UNL1       -0.0645
     11 C           2.0000    0.5000    0.0000 C.3     1  UNL1       -0.0653
     12 C           8.9282    0.5000    0.0000 C.3     1  UNL1        0.0817
     13 H           6.8671   -0.3100    0.0000 H       1  UNL1        0.0413
     14 H           5.8626    0.9749    0.0000 H       1  UNL1        0.0273
     15 H           5.0656    0.9749    0.0000 H       1  UNL1        0.0273
     16 H           4.1996   -0.4749    0.0000 H       1  UNL1        0.0265
     17 H           4.9966   -0.4749    0.0000 H       1  UNL1        0.0265
     18 H           4.1306    0.9749    0.0000 H       1  UNL1        0.0265
     19 H           3.3335    0.9749    0.0000 H       1  UNL1        0.0265
     20 H           6.5422   -1.5826    0.0000 H       1  UNL1        0.0270
     21 H           6.9407   -0.8923    0.0000 H       1  UNL1        0.0270
     22 H           2.4675   -0.4749    0.0000 H       1  UNL1        0.0263
     23 H           3.2646   -0.4749    0.0000 H       1  UNL1        0.0263
     24 H           5.1541   -0.9631    0.0000 H       1  UNL1        0.0230
     25 H           4.9272   -1.8100    0.0000 H       1  UNL1        0.0230
     26 H           5.7741   -2.0369    0.0000 H       1  UNL1        0.0230
     27 H           2.3100    1.0369    0.0000 H       1  UNL1        0.0230
     28 H           1.4631    0.8100    0.0000 H       1  UNL1        0.0230
     29 H           1.6900   -0.0369    0.0000 H       1  UNL1        0.0230
     30 H           9.2382   -0.0369    0.0000 H       1  UNL1        0.0661
     31 H           9.4651    0.8100    0.0000 H       1  UNL1        0.0661
     32 H           8.6182    1.0369    0.0000 H       1  UNL1        0.0661
@<TRIPOS>BOND
     1     1     9    1
     2     1    12    1
     3     2     9    2
     4     3     4    1
     5     3     7    1
     6     3     9    1
     7     3    13    1
     8     4     5    1
     9     4    14    1
    10     4    15    1
    11     5     6    1
    12     5    16    1
    13     5    17    1
    14     6     8    1
    15     6    18    1
    16     6    19    1
    17     7    10    1
    18     7    20    1
    19     7    21    1
    20     8    11    1
    21     8    22    1
    22     8    23    1
    23    10    24    1
    24    10    25    1
    25    10    26    1
    26    11    27    1
    27    11    28    1
    28    11    29    1
    29    12    30    1
    30    12    31    1
    31    12    32    1
