@<TRIPOS>MOLECULE
IMPHY010999
 45 49 0 0 0
SMALL
GASTEIGER

@<TRIPOS>ATOM
      1 O           6.5682   -1.4890    0.0000 O.3     1  UNL1       -0.4560
      2 O           5.7031    2.9742    0.0000 O.3     1  UNL1       -0.4535
      3 O           7.8044   -0.9125    0.0000 O.2     1  UNL1       -0.2502
      4 O           2.5381    2.0740    0.0000 O.3     1  UNL1       -0.3869
      5 O           4.1718    3.8368    0.0000 O.2     1  UNL1       -0.2452
      6 O           4.4805   -3.8368    0.0000 O.2     1  UNL1       -0.4706
      7 C           6.0682    0.0499    0.0000 C.3     1  UNL1        0.0807
      8 C           5.2022    0.5499    0.0000 C.3     1  UNL1        0.0006
      9 C           6.9343    0.5499    0.0000 C.3     1  UNL1       -0.0238
     10 C           5.2022    1.5498    0.0000 C.2     1  UNL1       -0.0130
     11 C           5.2592   -0.5379    0.0000 C.3     1  UNL1        0.0053
     12 C           6.0682    2.0498    0.0000 C.3     1  UNL1        0.1258
     13 C           6.9343    1.5498    0.0000 C.3     1  UNL1       -0.0081
     14 C           4.3083    0.0152    0.0000 C.3     1  UNL1       -0.0427
     15 C           6.8773   -0.5379    0.0000 C.2     1  UNL1        0.3149
     16 C           4.3083    2.0845    0.0000 C.2     1  UNL1        0.0677
     17 C           5.5682   -1.4890    0.0000 C.3     1  UNL1        0.1320
     18 C           3.4022    0.5290    0.0000 C.3     1  UNL1       -0.0219
     19 C           3.4022    1.5707    0.0000 C.3     1  UNL1        0.0870
     20 C           7.9191    0.7235    0.0000 C.3     1  UNL1       -0.0613
     21 C           4.7095    2.9937    0.0000 C.2     1  UNL1        0.3383
     22 C           4.9805   -2.2980    0.0000 C.ar    1  UNL1        0.0304
     23 C           3.9805   -2.2980    0.0000 C.ar    1  UNL1       -0.0172
     24 C           5.2895   -3.2491    0.0000 C.ar    1  UNL1        0.0983
     25 C           3.6714   -3.2491    0.0000 C.ar    1  UNL1        0.0921
     26 H           5.2088   -0.3001    0.0000 H       1  UNL1        0.0358
     27 H           7.1463   -0.0328    0.0000 H       1  UNL1        0.0310
     28 H           4.9492   -0.0010    0.0000 H       1  UNL1        0.0315
     29 H           4.6928   -0.7901    0.0000 H       1  UNL1        0.0315
     30 H           6.7119    2.6050    0.0000 H       1  UNL1        0.0782
     31 H           7.5449    1.4422    0.0000 H       1  UNL1        0.0307
     32 H           7.1463    2.1325    0.0000 H       1  UNL1        0.0307
     33 H           3.9147   -0.4638    0.0000 H       1  UNL1        0.0272
     34 H           4.7129   -0.4546    0.0000 H       1  UNL1        0.0272
     35 H           5.8497   -2.0414    0.0000 H       1  UNL1        0.0786
     36 H           2.7914    0.6351    0.0000 H       1  UNL1        0.0294
     37 H           3.1932   -0.0547    0.0000 H       1  UNL1        0.0294
     38 H           3.4058    2.1907    0.0000 H       1  UNL1        0.0646
     39 H           8.0268    0.1129    0.0000 H       1  UNL1        0.0233
     40 H           8.5297    0.8312    0.0000 H       1  UNL1        0.0233
     41 H           7.8114    1.3341    0.0000 H       1  UNL1        0.0233
     42 H           2.0000    1.7661    0.0000 H       1  UNL1        0.2102
     43 H           3.6160   -1.7964    0.0000 H       1  UNL1        0.0653
     44 H           5.8791   -3.4406    0.0000 H       1  UNL1        0.1033
     45 H           3.0818   -3.4406    0.0000 H       1  UNL1        0.1029
@<TRIPOS>BOND
     1     1    15    1
     2     1    17    1
     3     2    12    1
     4     2    21    1
     5     3    15    2
     6    19     4    1
     7     4    42    1
     8     5    21    2
     9     6    24   ar
    10     6    25   ar
    11     7     8    1
    12     7     9    1
    13     7    11    1
    14     7    15    1
    15     8    10    1
    16     8    14    1
    17     8    26    1
    18     9    13    1
    19     9    20    1
    20     9    27    1
    21    10    12    1
    22    10    16    2
    23    11    17    1
    24    11    28    1
    25    11    29    1
    26    12    13    1
    27    12    30    1
    28    13    31    1
    29    13    32    1
    30    14    18    1
    31    14    33    1
    32    14    34    1
    33    16    19    1
    34    16    21    1
    35    17    22    1
    36    17    35    1
    37    18    19    1
    38    18    36    1
    39    18    37    1
    40    19    38    1
    41    20    39    1
    42    20    40    1
    43    20    41    1
    44    22    23   ar
    45    22    24   ar
    46    23    25   ar
    47    23    43    1
    48    24    44    1
    49    25    45    1
