@<TRIPOS>MOLECULE
IMPHY007736
 48 52 0 0 0
SMALL
GASTEIGER

@<TRIPOS>ATOM
      1 O           6.9006   -1.7848    0.0000 O.3     1  UNL1       -0.4828
      2 O          10.4205   -1.7848    0.0000 O.3     1  UNL1       -0.4253
      3 O           8.6605    1.2498    0.0000 O.3     1  UNL1       -0.5055
      4 O           6.9121    1.2844    0.0000 O.2     1  UNL1       -0.2917
      5 O          12.1907   -1.7743    0.0000 O.2     1  UNL1       -0.2504
      6 O           2.5381   -3.2843    0.0000 O.3     1  UNL1       -0.5068
      7 C          10.4205    0.2845    0.0000 C.3     1  UNL1        0.0262
      8 C           9.5266   -0.2502    0.0000 C.ar    1  UNL1        0.0451
      9 C          11.3266   -0.2293    0.0000 C.3     1  UNL1        0.0564
     10 C           7.7945   -0.2502    0.0000 C.ar    1  UNL1        0.1009
     11 C           5.9945   -1.2710    0.0000 C.3     1  UNL1        0.1322
     12 C           9.5266   -1.2502    0.0000 C.ar    1  UNL1        0.1424
     13 C           8.6605    0.2498    0.0000 C.ar    1  UNL1        0.1381
     14 C           7.7945   -1.2502    0.0000 C.ar    1  UNL1        0.1389
     15 C           5.9945   -0.2293    0.0000 C.3     1  UNL1        0.0520
     16 C          10.4089    1.2844    0.0000 C.ar    1  UNL1       -0.0392
     17 C           6.9006    0.2845    0.0000 C.2     1  UNL1        0.1740
     18 C           8.6605   -1.7502    0.0000 C.ar    1  UNL1        0.0238
     19 C          11.3266   -1.2710    0.0000 C.2     1  UNL1        0.3132
     20 C           5.1304   -1.7743    0.0000 C.ar    1  UNL1       -0.0067
     21 C          11.2691    1.7944    0.0000 C.ar    1  UNL1       -0.0580
     22 C           9.5372    1.7744    0.0000 C.ar    1  UNL1       -0.0580
     23 C           4.2625   -1.2776    0.0000 C.ar    1  UNL1       -0.0516
     24 C           5.1343   -2.7743    0.0000 C.ar    1  UNL1       -0.0516
     25 C          11.2576    2.7944    0.0000 C.ar    1  UNL1       -0.0615
     26 C           9.5256    2.7743    0.0000 C.ar    1  UNL1       -0.0615
     27 C          10.3858    3.2843    0.0000 C.ar    1  UNL1       -0.0617
     28 C           3.3984   -1.7810    0.0000 C.ar    1  UNL1       -0.0198
     29 C           4.2702   -3.2776    0.0000 C.ar    1  UNL1       -0.0198
     30 C           3.4022   -2.7810    0.0000 C.ar    1  UNL1        0.1169
     31 H          10.9544    0.5997    0.0000 H       1  UNL1        0.0405
     32 H          11.9374   -0.3354    0.0000 H       1  UNL1        0.0387
     33 H          11.5356    0.3544    0.0000 H       1  UNL1        0.0387
     34 H           5.9981   -1.8910    0.0000 H       1  UNL1        0.0789
     35 H           5.7854    0.3544    0.0000 H       1  UNL1        0.0385
     36 H           5.3836   -0.3354    0.0000 H       1  UNL1        0.0385
     37 H           8.6605   -2.3702    0.0000 H       1  UNL1        0.0691
     38 H          11.8096    1.4906    0.0000 H       1  UNL1        0.0620
     39 H           9.0039    1.4582    0.0000 H       1  UNL1        0.0620
     40 H           8.1236    1.5598    0.0000 H       1  UNL1        0.2922
     41 H           4.2601   -0.6576    0.0000 H       1  UNL1        0.0623
     42 H           5.6724   -3.0822    0.0000 H       1  UNL1        0.0623
     43 H          11.7909    3.1105    0.0000 H       1  UNL1        0.0618
     44 H           8.9851    3.0781    0.0000 H       1  UNL1        0.0618
     45 H          10.3786    3.9043    0.0000 H       1  UNL1        0.0618
     46 H           2.8602   -1.4730    0.0000 H       1  UNL1        0.0654
     47 H           4.2726   -3.8976    0.0000 H       1  UNL1        0.0654
     48 H           2.0000   -2.9764    0.0000 H       1  UNL1        0.2921
@<TRIPOS>BOND
     1     1    11    1
     2     1    14    1
     3     2    12    1
     4     2    19    1
     5     3    13    1
     6     3    40    1
     7     4    17    2
     8     5    19    2
     9     6    30    1
    10     6    48    1
    11     7     8    1
    12     7     9    1
    13     7    16    1
    14     7    31    1
    15     8    12   ar
    16     8    13   ar
    17     9    19    1
    18     9    32    1
    19     9    33    1
    20    10    13   ar
    21    10    14   ar
    22    10    17    1
    23    11    15    1
    24    11    20    1
    25    11    34    1
    26    12    18   ar
    27    14    18   ar
    28    15    17    1
    29    15    35    1
    30    15    36    1
    31    16    21   ar
    32    16    22   ar
    33    18    37    1
    34    20    23   ar
    35    20    24   ar
    36    21    25   ar
    37    21    38    1
    38    22    26   ar
    39    22    39    1
    40    23    28   ar
    41    23    41    1
    42    24    29   ar
    43    24    42    1
    44    25    27   ar
    45    25    43    1
    46    26    27   ar
    47    26    44    1
    48    27    45    1
    49    28    30   ar
    50    28    46    1
    51    29    30   ar
    52    29    47    1
