@<TRIPOS>MOLECULE
IMPHY004434
 34 36 0 0 0
SMALL
GASTEIGER

@<TRIPOS>ATOM
      1 O           6.0290   -1.0517    0.0000 O.2     1  UNL1       -0.4582
      2 O           4.2690   -2.0171    0.0000 O.3     1  UNL1       -0.4885
      3 O           4.2690    1.9829    0.0000 O.3     1  UNL1       -0.5058
      4 O           6.0174    2.0175    0.0000 O.2     1  UNL1       -0.2863
      5 O           2.5369   -1.0171    0.0000 O.3     1  UNL1       -0.5031
      6 O          10.3914    2.5171    0.0000 O.3     1  UNL1       -0.5068
      7 C           5.1350    0.4829    0.0000 C.ar    1  UNL1        0.1097
      8 C           5.1350   -0.5171    0.0000 C.ar    1  UNL1        0.1870
      9 C           6.9350    0.5037    0.0000 C.ar    1  UNL1        0.0644
     10 C           6.0290    1.0176    0.0000 C.ar    1  UNL1        0.2038
     11 C           4.2690   -1.0171    0.0000 C.ar    1  UNL1        0.2049
     12 C           4.2690    0.9829    0.0000 C.ar    1  UNL1        0.1349
     13 C           7.7991    1.0071    0.0000 C.ar    1  UNL1       -0.0110
     14 C           6.9350   -0.5379    0.0000 C.ar    1  UNL1        0.1040
     15 C           3.4030   -0.5171    0.0000 C.ar    1  UNL1        0.1657
     16 C           3.4030    0.4829    0.0000 C.ar    1  UNL1        0.0259
     17 C           8.6671    0.5104    0.0000 C.ar    1  UNL1       -0.0504
     18 C           7.7953    2.0071    0.0000 C.ar    1  UNL1       -0.0504
     19 C           9.5312    1.0138    0.0000 C.ar    1  UNL1       -0.0196
     20 C           8.6594    2.5104    0.0000 C.ar    1  UNL1       -0.0196
     21 C           9.5273    2.0137    0.0000 C.ar    1  UNL1        0.1169
     22 C           3.4030   -2.5171    0.0000 C.3     1  UNL1        0.0791
     23 H           7.4708   -0.8500    0.0000 H       1  UNL1        0.1037
     24 H           2.8660    0.7929    0.0000 H       1  UNL1        0.0692
     25 H           8.6694   -0.1096    0.0000 H       1  UNL1        0.0625
     26 H           7.2571    2.3150    0.0000 H       1  UNL1        0.0625
     27 H          10.0693    0.7058    0.0000 H       1  UNL1        0.0654
     28 H           8.6570    3.1304    0.0000 H       1  UNL1        0.0654
     29 H           3.7320    2.2929    0.0000 H       1  UNL1        0.2922
     30 H           2.0000   -0.7071    0.0000 H       1  UNL1        0.2923
     31 H           3.0930   -1.9801    0.0000 H       1  UNL1        0.0660
     32 H           2.8660   -2.8271    0.0000 H       1  UNL1        0.0660
     33 H           3.7130   -3.0540    0.0000 H       1  UNL1        0.0660
     34 H          10.9295    2.2092    0.0000 H       1  UNL1        0.2921
@<TRIPOS>BOND
     1     1     8   ar
     2     1    14   ar
     3     2    11    1
     4     2    22    1
     5     3    12    1
     6     3    29    1
     7     4    10    2
     8     5    15    1
     9     5    30    1
    10     6    21    1
    11     6    34    1
    12     7     8   ar
    13     7    10   ar
    14     7    12   ar
    15     8    11   ar
    16     9    10   ar
    17     9    13    1
    18     9    14   ar
    19    11    15   ar
    20    12    16   ar
    21    13    17   ar
    22    13    18   ar
    23    14    23    1
    24    15    16   ar
    25    16    24    1
    26    17    19   ar
    27    17    25    1
    28    18    20   ar
    29    18    26    1
    30    19    21   ar
    31    19    27    1
    32    20    21   ar
    33    20    28    1
    34    22    31    1
    35    22    32    1
    36    22    33    1
