@<TRIPOS>MOLECULE
IMPHY003893
 55 55 0 0 0
SMALL
GASTEIGER

@<TRIPOS>ATOM
      1 O           4.1200    0.2685    0.0000 O.3     1  UNL1       -0.3875
      2 C           5.6200    1.1345    0.0000 C.3     1  UNL1       -0.0087
      3 C           6.1200    2.0005    0.0000 C.3     1  UNL1       -0.0412
      4 C           6.1200    0.2685    0.0000 C.3     1  UNL1       -0.0437
      5 C           4.6200    1.1345    0.0000 C.3     1  UNL1        0.0766
      6 C           5.6200   -0.5976    0.0000 C.3     1  UNL1       -0.0317
      7 C           7.1200    2.0005    0.0000 C.3     1  UNL1       -0.0623
      8 C           5.6200    2.8665    0.0000 C.3     1  UNL1       -0.0623
      9 C           4.1200    2.0005    0.0000 C.2     1  UNL1       -0.0566
     10 C           6.1200   -1.4636    0.0000 C.2     1  UNL1       -0.0765
     11 C           3.1200    2.0005    0.0000 C.2     1  UNL1       -0.0738
     12 C           2.6200    1.1345    0.0000 C.3     1  UNL1       -0.0285
     13 C           5.6200   -2.3296    0.0000 C.2     1  UNL1       -0.0847
     14 C           4.6200   -2.3296    0.0000 C.3     1  UNL1       -0.0308
     15 C           3.1200    0.2685    0.0000 C.3     1  UNL1       -0.0308
     16 C           7.1200   -1.4636    0.0000 C.3     1  UNL1       -0.0438
     17 C           4.1200   -1.4636    0.0000 C.3     1  UNL1       -0.0286
     18 C           2.6200    2.8665    0.0000 C.3     1  UNL1       -0.0437
     19 C           3.1200   -1.4636    0.0000 C.2     1  UNL1       -0.0762
     20 C           2.6200   -0.5976    0.0000 C.2     1  UNL1       -0.0847
     21 C           2.6200   -2.3296    0.0000 C.3     1  UNL1       -0.0438
     22 H           6.2400    1.1345    0.0000 H       1  UNL1        0.0331
     23 H           6.4300    2.5375    0.0000 H       1  UNL1        0.0299
     24 H           6.5950   -0.1301    0.0000 H       1  UNL1        0.0272
     25 H           6.5950    0.6670    0.0000 H       1  UNL1        0.0272
     26 H           4.0000    1.1345    0.0000 H       1  UNL1        0.0640
     27 H           5.1450   -0.1990    0.0000 H       1  UNL1        0.0310
     28 H           5.1450   -0.9961    0.0000 H       1  UNL1        0.0310
     29 H           7.1200    1.3805    0.0000 H       1  UNL1        0.0232
     30 H           7.7400    2.0005    0.0000 H       1  UNL1        0.0232
     31 H           7.1200    2.6205    0.0000 H       1  UNL1        0.0232
     32 H           6.1569    3.1765    0.0000 H       1  UNL1        0.0232
     33 H           5.3100    3.4035    0.0000 H       1  UNL1        0.0232
     34 H           5.0831    2.5565    0.0000 H       1  UNL1        0.0232
     35 H           4.4300    2.5375    0.0000 H       1  UNL1        0.0597
     36 H           4.4300   -0.2685    0.0000 H       1  UNL1        0.2102
     37 H           2.1450    1.5330    0.0000 H       1  UNL1        0.0313
     38 H           2.1450    0.7360    0.0000 H       1  UNL1        0.0313
     39 H           5.9300   -2.8665    0.0000 H       1  UNL1        0.0572
     40 H           4.0374   -2.5417    0.0000 H       1  UNL1        0.0310
     41 H           4.7277   -2.9402    0.0000 H       1  UNL1        0.0310
     42 H           3.5950   -0.1301    0.0000 H       1  UNL1        0.0310
     43 H           3.5950    0.6670    0.0000 H       1  UNL1        0.0310
     44 H           7.1200   -2.0836    0.0000 H       1  UNL1        0.0274
     45 H           7.7400   -1.4636    0.0000 H       1  UNL1        0.0274
     46 H           7.1200   -0.8436    0.0000 H       1  UNL1        0.0274
     47 H           4.7026   -1.2515    0.0000 H       1  UNL1        0.0313
     48 H           4.0123   -0.8530    0.0000 H       1  UNL1        0.0313
     49 H           3.1569    3.1765    0.0000 H       1  UNL1        0.0274
     50 H           2.3100    3.4035    0.0000 H       1  UNL1        0.0274
     51 H           2.0831    2.5565    0.0000 H       1  UNL1        0.0274
     52 H           2.0000   -0.5976    0.0000 H       1  UNL1        0.0572
     53 H           2.0831   -2.0196    0.0000 H       1  UNL1        0.0274
     54 H           2.3100   -2.8665    0.0000 H       1  UNL1        0.0274
     55 H           3.1569   -2.6396    0.0000 H       1  UNL1        0.0274
@<TRIPOS>BOND
     1     5     1    1
     2     1    36    1
     3     2     3    1
     4     2     4    1
     5     2     5    1
     6     2    22    1
     7     3     7    1
     8     3     8    1
     9     3    23    1
    10     4     6    1
    11     4    24    1
    12     4    25    1
    13     5     9    1
    14     5    26    1
    15     6    10    1
    16     6    27    1
    17     6    28    1
    18     7    29    1
    19     7    30    1
    20     7    31    1
    21     8    32    1
    22     8    33    1
    23     8    34    1
    24     9    11    2
    25     9    35    1
    26    10    13    2
    27    10    16    1
    28    11    12    1
    29    11    18    1
    30    12    15    1
    31    12    37    1
    32    12    38    1
    33    13    14    1
    34    13    39    1
    35    14    17    1
    36    14    40    1
    37    14    41    1
    38    15    20    1
    39    15    42    1
    40    15    43    1
    41    16    44    1
    42    16    45    1
    43    16    46    1
    44    17    19    1
    45    17    47    1
    46    17    48    1
    47    18    49    1
    48    18    50    1
    49    18    51    1
    50    19    20    2
    51    19    21    1
    52    20    52    1
    53    21    53    1
    54    21    54    1
    55    21    55    1
