@<TRIPOS>MOLECULE
IMPHY014349
 44 48 0 0 0
SMALL
GASTEIGER

@<TRIPOS>ATOM
      1 O           2.9572   -2.6120    0.0000 O.3     1  UNL1       -0.3487
      2 O           6.4737   -0.7826    0.0000 O.3     1  UNL1       -0.3610
      3 O           4.3710   -0.6660    0.0000 O.3     1  UNL1       -0.4518
      4 O           4.5327    1.6115    0.0000 O.3     1  UNL1       -0.4211
      5 O           6.2609    0.7080    0.0000 O.3     1  UNL1       -0.4514
      6 O           5.3843    1.1393    0.0000 O.3     1  UNL1       -0.3490
      7 O           5.5630   -2.0865    0.0000 O.2     1  UNL1       -0.2475
      8 O           3.2830    2.8739    0.0000 O.2     1  UNL1       -0.2452
      9 O           7.2043   -0.7446    0.0000 O.2     1  UNL1       -0.2512
     10 C           3.8710   -2.2048    0.0000 C.3     1  UNL1        0.1956
     11 C           3.0620   -1.6170    0.0000 C.3     1  UNL1        0.1403
     12 C           5.4746   -0.8352    0.0000 C.3     1  UNL1        0.1364
     13 C           6.0192   -1.6739    0.0000 C.3     1  UNL1        0.0921
     14 C           3.3710   -0.6660    0.0000 C.3     1  UNL1        0.1603
     15 C           4.6142   -2.8739    0.0000 C.3     1  UNL1       -0.0081
     16 C           5.5652   -2.5649    0.0000 C.3     1  UNL1       -0.0205
     17 C           5.4223    0.1634    0.0000 C.3     1  UNL1        0.2029
     18 C           4.5313    0.6174    0.0000 C.3     1  UNL1        0.2805
     19 C           3.5790    0.3122    0.0000 C.2     1  UNL1        0.0571
     20 C           4.6801   -1.6170    0.0000 C.2     1  UNL1        0.3428
     21 C           4.7926   -0.1039    0.0000 C.3     1  UNL1       -0.0296
     22 C           3.0000    1.1203    0.0000 C.2     1  UNL1        0.0427
     23 C           3.5882    1.9216    0.0000 C.2     1  UNL1        0.3379
     24 C           2.0000    1.1260    0.0000 C.3     1  UNL1       -0.0326
     25 C           7.1519    0.2540    0.0000 C.2     1  UNL1        0.3045
     26 C           7.9906    0.7987    0.0000 C.3     1  UNL1        0.0332
     27 H           2.3744   -1.1174    0.0000 H       1  UNL1        0.0672
     28 H           6.8681   -1.6294    0.0000 H       1  UNL1        0.0626
     29 H           2.5500   -0.4460    0.0000 H       1  UNL1        0.0812
     30 H           4.1256   -3.2556    0.0000 H       1  UNL1        0.0300
     31 H           4.9053   -3.4214    0.0000 H       1  UNL1        0.0300
     32 H           5.5977   -3.1841    0.0000 H       1  UNL1        0.0292
     33 H           6.1717   -2.6938    0.0000 H       1  UNL1        0.0292
     34 H           5.9747   -0.1181    0.0000 H       1  UNL1        0.0835
     35 H           5.2460    0.3190    0.0000 H       1  UNL1        0.0259
     36 H           4.3698    0.3496    0.0000 H       1  UNL1        0.0259
     37 H           4.3392   -0.5267    0.0000 H       1  UNL1        0.0259
     38 H           5.3685    1.7591    0.0000 H       1  UNL1        0.2143
     39 H           2.0036    1.7460    0.0000 H       1  UNL1        0.0280
     40 H           1.3800    1.1296    0.0000 H       1  UNL1        0.0280
     41 H           1.9964    0.5060    0.0000 H       1  UNL1        0.0280
     42 H           8.3283    0.2787    0.0000 H       1  UNL1        0.0342
     43 H           8.5106    1.1364    0.0000 H       1  UNL1        0.0342
     44 H           7.6529    1.3187    0.0000 H       1  UNL1        0.0342
@<TRIPOS>BOND
     1    10     1    1
     2     1    11    1
     3     2    12    1
     4     2    13    1
     5     3    14    1
     6     3    20    1
     7     4    18    1
     8     4    23    1
     9    17     5    1
    10     5    25    1
    11    18     6    1
    12     6    38    1
    13     7    20    2
    14     8    23    2
    15     9    25    2
    16    10    11    1
    17    10    15    1
    18    10    20    1
    19    11    14    1
    20    11    27    1
    21    12    13    1
    22    12    17    1
    23    12    21    1
    24    13    16    1
    25    13    28    1
    26    14    19    1
    27    14    29    1
    28    15    16    1
    29    15    30    1
    30    15    31    1
    31    16    32    1
    32    16    33    1
    33    17    18    1
    34    17    34    1
    35    18    19    1
    36    19    22    2
    37    21    35    1
    38    21    36    1
    39    21    37    1
    40    22    23    1
    41    22    24    1
    42    24    39    1
    43    24    40    1
    44    24    41    1
    45    25    26    1
    46    26    42    1
    47    26    43    1
    48    26    44    1
