@<TRIPOS>MOLECULE
IMPHY003758
 45 48 0 0 0
SMALL
GASTEIGER

@<TRIPOS>ATOM
      1 O           9.9078    1.0526    0.0000 O.3     1  UNL1       -0.4536
      2 O           5.5301   -0.5407    0.0000 O.3     1  UNL1       -0.4810
      3 O           7.3424   -1.7359    0.0000 O.2     1  UNL1       -0.4591
      4 O           3.7702   -1.5060    0.0000 O.2     1  UNL1       -0.4183
      5 O          11.5714    1.6912    0.0000 O.2     1  UNL1       -0.2453
      6 O           2.0000   -1.5165    0.0000 O.2     1  UNL1       -0.2452
      7 C           8.9942    1.4593    0.0000 C.3     1  UNL1        0.1259
      8 C           8.1282    0.9593    0.0000 C.3     1  UNL1        0.0091
      9 C           7.2622    1.4593    0.0000 C.2     1  UNL1       -0.0696
     10 C           9.0988    2.4539    0.0000 C.2     1  UNL1       -0.0340
     11 C          10.0769    2.6618    0.0000 C.2     1  UNL1        0.0331
     12 C           5.5301   -1.5407    0.0000 C.ar    1  UNL1        0.2066
     13 C           6.3961    0.9593    0.0000 C.2     1  UNL1       -0.0480
     14 C           6.3961   -2.0407    0.0000 C.ar    1  UNL1        0.1799
     15 C           6.3961   -3.0407    0.0000 C.ar    1  UNL1        0.0246
     16 C           4.6641   -2.0407    0.0000 C.ar    1  UNL1        0.1842
     17 C           6.3961   -0.0407    0.0000 C.3     1  UNL1        0.1084
     18 C          10.5769    1.7958    0.0000 C.2     1  UNL1        0.3353
     19 C           4.6641   -3.0407    0.0000 C.ar    1  UNL1        0.0221
     20 C           7.2622    2.4593    0.0000 C.3     1  UNL1       -0.0436
     21 C           5.5301   -3.5407    0.0000 C.ar    1  UNL1       -0.0401
     22 C          10.4836    3.5753    0.0000 C.3     1  UNL1       -0.0331
     23 C           7.3424   -3.3454    0.0000 C.ar    1  UNL1       -0.0160
     24 C           3.7702   -3.5753    0.0000 C.ar    1  UNL1       -0.0442
     25 C           7.9260   -2.5407    0.0000 C.ar    1  UNL1        0.0933
     26 C           2.8641   -3.0615    0.0000 C.ar    1  UNL1        0.0236
     27 C           2.8641   -2.0198    0.0000 C.ar    1  UNL1        0.3373
     28 H           9.0267    0.8402    0.0000 H       1  UNL1        0.0783
     29 H           7.7297    0.4844    0.0000 H       1  UNL1        0.0349
     30 H           8.5267    0.4844    0.0000 H       1  UNL1        0.0349
     31 H           8.6380    2.8687    0.0000 H       1  UNL1        0.0613
     32 H           5.8592    1.2693    0.0000 H       1  UNL1        0.0605
     33 H           6.6082   -0.6233    0.0000 H       1  UNL1        0.0742
     34 H           7.0067    0.0670    0.0000 H       1  UNL1        0.0742
     35 H           7.8822    2.4593    0.0000 H       1  UNL1        0.0274
     36 H           7.2622    3.0793    0.0000 H       1  UNL1        0.0274
     37 H           6.6422    2.4593    0.0000 H       1  UNL1        0.0274
     38 H           5.5301   -4.1607    0.0000 H       1  UNL1        0.0632
     39 H          11.0500    3.3231    0.0000 H       1  UNL1        0.0280
     40 H          10.7358    4.1417    0.0000 H       1  UNL1        0.0280
     41 H           9.9172    3.8275    0.0000 H       1  UNL1        0.0280
     42 H           7.5350   -3.9347    0.0000 H       1  UNL1        0.0655
     43 H           3.7773   -4.1953    0.0000 H       1  UNL1        0.0627
     44 H           8.5460   -2.5407    0.0000 H       1  UNL1        0.1030
     45 H           2.3284   -3.3735    0.0000 H       1  UNL1        0.0689
@<TRIPOS>BOND
     1     1     7    1
     2     1    18    1
     3     2    12    1
     4     2    17    1
     5     3    14   ar
     6     3    25   ar
     7     4    16   ar
     8     4    27   ar
     9     5    18    2
    10     6    27    2
    11     7     8    1
    12     7    10    1
    13     7    28    1
    14     8     9    1
    15     8    29    1
    16     8    30    1
    17     9    13    2
    18     9    20    1
    19    10    11    2
    20    10    31    1
    21    11    18    1
    22    11    22    1
    23    12    14   ar
    24    12    16   ar
    25    13    17    1
    26    13    32    1
    27    14    15   ar
    28    15    21   ar
    29    15    23   ar
    30    16    19   ar
    31    17    33    1
    32    17    34    1
    33    19    21   ar
    34    19    24   ar
    35    20    35    1
    36    20    36    1
    37    20    37    1
    38    21    38    1
    39    22    39    1
    40    22    40    1
    41    22    41    1
    42    23    25   ar
    43    23    42    1
    44    24    26   ar
    45    24    43    1
    46    25    44    1
    47    26    27   ar
    48    26    45    1
