@<TRIPOS>MOLECULE
IMPHY004421
 60 61 0 0 0
SMALL
GASTEIGER

@<TRIPOS>ATOM
      1 O           4.5981   -2.0000    0.0000 O.2     1  UNL1       -0.2708
      2 O           9.7942    2.0000    0.0000 O.2     1  UNL1       -0.2708
      3 O           2.8660   -7.0000    0.0000 O.3     1  UNL1       -0.4914
      4 O          11.5263    7.0000    0.0000 O.3     1  UNL1       -0.4914
      5 O           4.5981   -8.0000    0.0000 O.3     1  UNL1       -0.5033
      6 O           9.7942    8.0000    0.0000 O.3     1  UNL1       -0.5033
      7 N           6.3301   -2.0000    0.0000 N.am    1  UNL1       -0.3118
      8 N           8.0622    2.0000    0.0000 N.am    1  UNL1       -0.3118
      9 C           7.1962    0.5000    0.0000 C.3     1  UNL1       -0.0360
     10 C           7.1962   -0.5000    0.0000 C.3     1  UNL1       -0.0360
     11 C           8.0622    1.0000    0.0000 C.3     1  UNL1        0.0119
     12 C           6.3301   -1.0000    0.0000 C.3     1  UNL1        0.0119
     13 C           5.4641   -2.5000    0.0000 C.2     1  UNL1        0.2369
     14 C           8.9282    2.5000    0.0000 C.2     1  UNL1        0.2369
     15 C           8.9282    3.5000    0.0000 C.2     1  UNL1        0.0007
     16 C           5.4641   -3.5000    0.0000 C.2     1  UNL1        0.0007
     17 C           4.5981   -5.0000    0.0000 C.ar    1  UNL1       -0.0212
     18 C           9.7942    5.0000    0.0000 C.ar    1  UNL1       -0.0212
     19 C           4.5981   -4.0000    0.0000 C.2     1  UNL1       -0.0496
     20 C           9.7942    4.0000    0.0000 C.2     1  UNL1       -0.0496
     21 C           3.7320   -5.5000    0.0000 C.ar    1  UNL1       -0.0092
     22 C          10.6603    5.5000    0.0000 C.ar    1  UNL1       -0.0092
     23 C           5.4641   -5.5000    0.0000 C.ar    1  UNL1       -0.0509
     24 C           8.9282    5.5000    0.0000 C.ar    1  UNL1       -0.0509
     25 C          10.6603    6.5000    0.0000 C.ar    1  UNL1        0.1618
     26 C           3.7320   -6.5000    0.0000 C.ar    1  UNL1        0.1618
     27 C           9.7942    7.0000    0.0000 C.ar    1  UNL1        0.1585
     28 C           4.5981   -7.0000    0.0000 C.ar    1  UNL1        0.1585
     29 C           5.4641   -6.5000    0.0000 C.ar    1  UNL1       -0.0160
     30 C           8.9282    6.5000    0.0000 C.ar    1  UNL1       -0.0160
     31 C          12.3923    6.5000    0.0000 C.3     1  UNL1        0.0790
     32 C           2.0000   -6.5000    0.0000 C.3     1  UNL1        0.0790
     33 H           7.4082   -1.0826    0.0000 H       1  UNL1        0.0281
     34 H           7.8067   -0.3923    0.0000 H       1  UNL1        0.0281
     35 H           6.9841    1.0826    0.0000 H       1  UNL1        0.0281
     36 H           6.5856    0.3923    0.0000 H       1  UNL1        0.0281
     37 H           6.1181   -0.4174    0.0000 H       1  UNL1        0.0462
     38 H           5.7196   -1.1077    0.0000 H       1  UNL1        0.0462
     39 H           8.2742    0.4174    0.0000 H       1  UNL1        0.0462
     40 H           8.6728    1.1077    0.0000 H       1  UNL1        0.0462
     41 H           6.8671   -2.3100    0.0000 H       1  UNL1        0.1490
     42 H           7.5252    2.3100    0.0000 H       1  UNL1        0.1490
     43 H           8.3913    3.8100    0.0000 H       1  UNL1        0.0669
     44 H           6.0010   -3.8100    0.0000 H       1  UNL1        0.0669
     45 H          10.3312    3.6900    0.0000 H       1  UNL1        0.0625
     46 H           4.0611   -3.6900    0.0000 H       1  UNL1        0.0625
     47 H           3.1951   -5.1900    0.0000 H       1  UNL1        0.0661
     48 H          11.1972    5.1900    0.0000 H       1  UNL1        0.0661
     49 H           6.0010   -5.1900    0.0000 H       1  UNL1        0.0625
     50 H           8.3913    5.1900    0.0000 H       1  UNL1        0.0625
     51 H           6.0010   -6.8100    0.0000 H       1  UNL1        0.0655
     52 H           8.3913    6.8100    0.0000 H       1  UNL1        0.0655
     53 H           5.1350   -8.3100    0.0000 H       1  UNL1        0.2923
     54 H           9.2573    8.3100    0.0000 H       1  UNL1        0.2923
     55 H          12.0823    5.9631    0.0000 H       1  UNL1        0.0660
     56 H          12.9292    6.1900    0.0000 H       1  UNL1        0.0660
     57 H           2.3100   -5.9631    0.0000 H       1  UNL1        0.0660
     58 H           1.4631   -6.1900    0.0000 H       1  UNL1        0.0660
     59 H           1.6900   -7.0369    0.0000 H       1  UNL1        0.0660
     60 H          12.7023    7.0369    0.0000 H       1  UNL1        0.0660
@<TRIPOS>BOND
     1     1    13    2
     2     2    14    2
     3     3    26    1
     4     3    32    1
     5     4    25    1
     6     4    31    1
     7     5    28    1
     8     5    53    1
     9     6    27    1
    10     6    54    1
    11     7    12    1
    12     7    13   am
    13     7    41    1
    14     8    11    1
    15     8    14   am
    16     8    42    1
    17     9    10    1
    18     9    11    1
    19     9    35    1
    20     9    36    1
    21    10    12    1
    22    10    33    1
    23    10    34    1
    24    11    39    1
    25    11    40    1
    26    12    37    1
    27    12    38    1
    28    13    16    1
    29    14    15    1
    30    15    20    2
    31    15    43    1
    32    16    19    2
    33    16    44    1
    34    17    19    1
    35    17    21   ar
    36    17    23   ar
    37    18    20    1
    38    18    22   ar
    39    18    24   ar
    40    19    46    1
    41    20    45    1
    42    21    26   ar
    43    21    47    1
    44    22    25   ar
    45    22    48    1
    46    23    29   ar
    47    23    49    1
    48    24    30   ar
    49    24    50    1
    50    25    27   ar
    51    26    28   ar
    52    27    30   ar
    53    28    29   ar
    54    29    51    1
    55    30    52    1
    56    31    55    1
    57    31    56    1
    58    31    60    1
    59    32    57    1
    60    32    58    1
    61    32    59    1
