@<TRIPOS>MOLECULE
IMPHY007859
 107 112 0 0 0
SMALL
GASTEIGER

@<TRIPOS>ATOM
      1 O           7.7788   -4.8071    0.0000 O.2     1  UNL1       -0.2970
      2 O           6.0010   -4.7898    0.0000 O.3     1  UNL1       -0.3480
      3 O           6.8165    4.2276    0.0000 O.3     1  UNL1       -0.3914
      4 O           4.2690   -4.7898    0.0000 O.3     1  UNL1       -0.3405
      5 O           7.1789    5.4128    0.0000 O.3     1  UNL1       -0.3834
      6 O           6.0010   -6.7898    0.0000 O.3     1  UNL1       -0.3841
      7 O           7.4654    7.6304    0.0000 O.3     1  UNL1       -0.3862
      8 O           9.8246    5.4173    0.0000 O.3     1  UNL1       -0.3921
      9 O           4.2690   -7.7898    0.0000 O.3     1  UNL1       -0.3864
     10 O           2.5369   -6.7898    0.0000 O.3     1  UNL1       -0.3865
     11 O           2.5369   -3.7898    0.0000 O.3     1  UNL1       -0.3924
     12 C           7.7197   -0.7383    0.0000 C.3     1  UNL1       -0.0194
     13 C           7.7313   -1.7382    0.0000 C.3     1  UNL1       -0.0189
     14 C           8.5920   -1.2282    0.0000 C.3     1  UNL1       -0.0401
     15 C           6.8480   -0.2483    0.0000 C.3     1  UNL1       -0.0289
     16 C           6.8198    0.7929    0.0000 C.3     1  UNL1       -0.0231
     17 C           6.8711   -2.2482    0.0000 C.3     1  UNL1       -0.0232
     18 C           8.6238   -0.2209    0.0000 C.3     1  UNL1       -0.0460
     19 C           7.7117    1.3310    0.0000 C.3     1  UNL1       -0.0232
     20 C           8.6471   -2.2345    0.0000 C.3     1  UNL1       -0.0399
     21 C           5.9878   -0.7583    0.0000 C.3     1  UNL1       -0.0489
     22 C           8.6198    0.8207    0.0000 C.3     1  UNL1       -0.0463
     23 C           5.9993   -1.7582    0.0000 C.3     1  UNL1       -0.0487
     24 C           7.4743    2.3389    0.0000 C.3     1  UNL1       -0.0302
     25 C           6.0389    1.4729    0.0000 C.3     1  UNL1       -0.0466
     26 C           6.8671   -3.2898    0.0000 C.3     1  UNL1        0.0443
     27 C           6.4426    2.4264    0.0000 C.3     1  UNL1       -0.0489
     28 C           5.9636    0.2764    0.0000 C.3     1  UNL1       -0.0588
     29 C           8.6671   -3.2759    0.0000 C.3     1  UNL1        0.0067
     30 C           8.5680    1.8476    0.0000 C.3     1  UNL1       -0.0588
     31 C           7.7711   -3.8071    0.0000 C.2     1  UNL1        0.1389
     32 C           8.1277    3.0960    0.0000 C.3     1  UNL1       -0.0144
     33 C           6.0010   -3.7898    0.0000 C.3     1  UNL1        0.0605
     34 C           7.7988    4.0403    0.0000 C.3     1  UNL1        0.0608
     35 C           9.1100    2.9086    0.0000 C.3     1  UNL1       -0.0598
     36 C           8.4522    4.7974    0.0000 C.3     1  UNL1        0.0072
     37 C           5.1350   -5.2898    0.0000 C.3     1  UNL1        0.1879
     38 C           8.1232    5.7417    0.0000 C.3     1  UNL1        0.1192
     39 C           5.1350   -6.2898    0.0000 C.3     1  UNL1        0.1341
     40 C           7.7943    6.6861    0.0000 C.3     1  UNL1        0.0913
     41 C           9.0676    6.0706    0.0000 C.3     1  UNL1        0.0757
     42 C           4.2690   -6.7898    0.0000 C.3     1  UNL1        0.1141
     43 C           3.4030   -5.2898    0.0000 C.3     1  UNL1        0.1130
     44 C           3.4030   -6.2898    0.0000 C.3     1  UNL1        0.1119
     45 C           8.7387    7.0150    0.0000 C.3     1  UNL1       -0.0335
     46 C           6.8120    6.8735    0.0000 C.3     1  UNL1       -0.0335
     47 C           2.5369   -4.7898    0.0000 C.3     1  UNL1        0.0730
     48 H           8.9959   -1.6985    0.0000 H       1  UNL1        0.0276
     49 H           8.9849   -0.7486    0.0000 H       1  UNL1        0.0276
     50 H           7.5758    0.1908    0.0000 H       1  UNL1        0.0312
     51 H           6.1366   -2.6760    0.0000 H       1  UNL1        0.0314
     52 H           8.8351   -0.8038    0.0000 H       1  UNL1        0.0271
     53 H           9.2342   -0.1125    0.0000 H       1  UNL1        0.0271
     54 H           9.2598   -2.3288    0.0000 H       1  UNL1        0.0275
     55 H           8.8448   -1.6469    0.0000 H       1  UNL1        0.0275
     56 H           5.7690   -0.1782    0.0000 H       1  UNL1        0.0268
     57 H           5.3785   -0.8730    0.0000 H       1  UNL1        0.0268
     58 H           9.2310    0.7170    0.0000 H       1  UNL1        0.0271
     59 H           8.8266    1.4052    0.0000 H       1  UNL1        0.0271
     60 H           5.3875   -1.6576    0.0000 H       1  UNL1        0.0268
     61 H           5.7940   -2.3432    0.0000 H       1  UNL1        0.0268
     62 H           7.1535    3.1261    0.0000 H       1  UNL1        0.0310
     63 H           5.4965    1.7733    0.0000 H       1  UNL1        0.0271
     64 H           5.6832    0.9651    0.0000 H       1  UNL1        0.0271
     65 H           6.8683   -3.9098    0.0000 H       1  UNL1        0.0403
     66 H           6.5596    3.0353    0.0000 H       1  UNL1        0.0268
     67 H           5.8494    2.6068    0.0000 H       1  UNL1        0.0268
     68 H           5.6433    0.8072    0.0000 H       1  UNL1        0.0235
     69 H           5.4328   -0.0439    0.0000 H       1  UNL1        0.0235
     70 H           6.2839   -0.2545    0.0000 H       1  UNL1        0.0235
     71 H           8.8874   -3.8555    0.0000 H       1  UNL1        0.0342
     72 H           9.2758   -3.1581    0.0000 H       1  UNL1        0.0342
     73 H           8.8882    1.3168    0.0000 H       1  UNL1        0.0235
     74 H           9.0988    2.1679    0.0000 H       1  UNL1        0.0235
     75 H           8.2477    2.3785    0.0000 H       1  UNL1        0.0235
     76 H           8.5328    3.5653    0.0000 H       1  UNL1        0.0326
     77 H           5.7890   -3.2072    0.0000 H       1  UNL1        0.0568
     78 H           5.3905   -3.8975    0.0000 H       1  UNL1        0.0568
     79 H           7.5949    4.6258    0.0000 H       1  UNL1        0.0597
     80 H           8.9939    2.2996    0.0000 H       1  UNL1        0.0233
     81 H           9.7190    2.7925    0.0000 H       1  UNL1        0.0233
     82 H           9.2262    3.5177    0.0000 H       1  UNL1        0.0233
     83 H           8.8441    4.3169    0.0000 H       1  UNL1        0.0320
     84 H           8.9934    5.0999    0.0000 H       1  UNL1        0.0320
     85 H           6.6126    4.8132    0.0000 H       1  UNL1        0.2098
     86 H           5.1350   -4.6698    0.0000 H       1  UNL1        0.0937
     87 H           5.1350   -6.9098    0.0000 H       1  UNL1        0.0671
     88 H           9.5480    6.4625    0.0000 H       1  UNL1        0.0587
     89 H           8.7651    6.6118    0.0000 H       1  UNL1        0.0587
     90 H           6.7095    5.8179    0.0000 H       1  UNL1        0.2104
     91 H           3.7320   -7.0998    0.0000 H       1  UNL1        0.0648
     92 H           3.4030   -4.6698    0.0000 H       1  UNL1        0.0647
     93 H           2.8660   -5.9798    0.0000 H       1  UNL1        0.0647
     94 H           8.9426    6.4295    0.0000 H       1  UNL1        0.0258
     95 H           9.3242    7.2189    0.0000 H       1  UNL1        0.0258
     96 H           8.5348    7.6005    0.0000 H       1  UNL1        0.0258
     97 H           6.9282    7.4825    0.0000 H       1  UNL1        0.0258
     98 H           6.2030    6.9896    0.0000 H       1  UNL1        0.0258
     99 H           6.6959    6.2644    0.0000 H       1  UNL1        0.0258
    100 H           6.5380   -6.4798    0.0000 H       1  UNL1        0.2101
    101 H           7.8705    8.0998    0.0000 H       1  UNL1        0.2103
    102 H          10.4101    5.6212    0.0000 H       1  UNL1        0.2095
    103 H           1.9264   -4.6821    0.0000 H       1  UNL1        0.0584
    104 H           2.3249   -5.3724    0.0000 H       1  UNL1        0.0584
    105 H           3.7320   -8.0998    0.0000 H       1  UNL1        0.2100
    106 H           2.0000   -6.4798    0.0000 H       1  UNL1        0.2100
    107 H           2.0000   -3.4798    0.0000 H       1  UNL1        0.2095
@<TRIPOS>BOND
     1     1    31    2
     2     2    33    1
     3    37     2    1
     4     3    34    1
     5     3    85    1
     6     4    37    1
     7     4    43    1
     8    38     5    1
     9     5    90    1
    10    39     6    1
    11     6   100    1
    12     7    40    1
    13     7   101    1
    14     8    41    1
    15     8   102    1
    16    42     9    1
    17     9   105    1
    18    44    10    1
    19    10   106    1
    20    11    47    1
    21    11   107    1
    22    12    13    1
    23    12    14    1
    24    12    15    1
    25    12    18    1
    26    13    14    1
    27    13    17    1
    28    13    20    1
    29    14    48    1
    30    14    49    1
    31    15    16    1
    32    15    21    1
    33    15    50    1
    34    16    19    1
    35    16    25    1
    36    16    28    1
    37    17    23    1
    38    17    26    1
    39    17    51    1
    40    18    22    1
    41    18    52    1
    42    18    53    1
    43    19    22    1
    44    19    24    1
    45    19    30    1
    46    20    29    1
    47    20    54    1
    48    20    55    1
    49    21    23    1
    50    21    56    1
    51    21    57    1
    52    22    58    1
    53    22    59    1
    54    23    60    1
    55    23    61    1
    56    24    27    1
    57    24    32    1
    58    24    62    1
    59    25    27    1
    60    25    63    1
    61    25    64    1
    62    26    31    1
    63    26    33    1
    64    26    65    1
    65    27    66    1
    66    27    67    1
    67    28    68    1
    68    28    69    1
    69    28    70    1
    70    29    31    1
    71    29    71    1
    72    29    72    1
    73    30    73    1
    74    30    74    1
    75    30    75    1
    76    32    34    1
    77    32    35    1
    78    32    76    1
    79    33    77    1
    80    33    78    1
    81    34    36    1
    82    34    79    1
    83    35    80    1
    84    35    81    1
    85    35    82    1
    86    36    38    1
    87    36    83    1
    88    36    84    1
    89    37    39    1
    90    37    86    1
    91    38    40    1
    92    38    41    1
    93    39    42    1
    94    39    87    1
    95    40    45    1
    96    40    46    1
    97    41    88    1
    98    41    89    1
    99    42    44    1
   100    42    91    1
   101    43    44    1
   102    43    47    1
   103    43    92    1
   104    44    93    1
   105    45    94    1
   106    45    95    1
   107    45    96    1
   108    46    97    1
   109    46    98    1
   110    46    99    1
   111    47   103    1
   112    47   104    1
