@<TRIPOS>MOLECULE
IMPHY017631
 43 42 0 0 0
SMALL
GASTEIGER

@<TRIPOS>ATOM
      1 O           2.5369   -0.8660    0.0000 O.3     1  UNL1       -0.3848
      2 O          11.1972   -0.8660    0.0000 O.3     1  UNL1       -0.3851
      3 C           3.4030   -0.3660    0.0000 C.3     1  UNL1        0.0814
      4 C           4.2690    0.1340    0.0000 C.3     1  UNL1       -0.0172
      5 C           5.1350   -0.3660    0.0000 C.3     1  UNL1       -0.0316
      6 C           6.0010    0.1340    0.0000 C.2     1  UNL1       -0.0846
      7 C           3.9030   -1.2320    0.0000 C.3     1  UNL1       -0.0324
      8 C           6.8671   -0.3660    0.0000 C.2     1  UNL1       -0.0728
      9 C           7.7331    0.1340    0.0000 C.3     1  UNL1       -0.0137
     10 C          10.3312   -0.3660    0.0000 C.3     1  UNL1        0.0786
     11 C           2.9030    0.5000    0.0000 C.2     1  UNL1       -0.0602
     12 C           9.4651    0.1340    0.0000 C.2     1  UNL1       -0.0570
     13 C           8.5991   -0.3660    0.0000 C.2     1  UNL1       -0.0813
     14 C           6.8671   -1.3660    0.0000 C.3     1  UNL1       -0.0435
     15 C          10.8312    0.5000    0.0000 C.3     1  UNL1       -0.0327
     16 C           9.8312   -1.2320    0.0000 C.3     1  UNL1       -0.0327
     17 C           3.4030    1.3660    0.0000 C.2     1  UNL1       -0.1000
     18 H           4.6675    0.6089    0.0000 H       1  UNL1        0.0299
     19 H           3.8705    0.6089    0.0000 H       1  UNL1        0.0299
     20 H           4.7365   -0.8410    0.0000 H       1  UNL1        0.0308
     21 H           5.5335   -0.8410    0.0000 H       1  UNL1        0.0308
     22 H           6.0010    0.7540    0.0000 H       1  UNL1        0.0572
     23 H           3.3660   -1.5420    0.0000 H       1  UNL1        0.0260
     24 H           4.2130   -1.7690    0.0000 H       1  UNL1        0.0260
     25 H           4.4399   -0.9221    0.0000 H       1  UNL1        0.0260
     26 H           8.1316    0.6089    0.0000 H       1  UNL1        0.0352
     27 H           7.3346    0.6089    0.0000 H       1  UNL1        0.0352
     28 H           2.2830    0.5000    0.0000 H       1  UNL1        0.0594
     29 H           9.4651    0.7540    0.0000 H       1  UNL1        0.0597
     30 H           8.5991   -0.9860    0.0000 H       1  UNL1        0.0573
     31 H           2.0000   -0.5560    0.0000 H       1  UNL1        0.2106
     32 H           6.2471   -1.3660    0.0000 H       1  UNL1        0.0274
     33 H           6.8671   -1.9860    0.0000 H       1  UNL1        0.0274
     34 H           7.4871   -1.3660    0.0000 H       1  UNL1        0.0274
     35 H          11.3681    0.1900    0.0000 H       1  UNL1        0.0260
     36 H          11.1412    1.0369    0.0000 H       1  UNL1        0.0260
     37 H          10.2942    0.8100    0.0000 H       1  UNL1        0.0260
     38 H           9.2942   -0.9221    0.0000 H       1  UNL1        0.0260
     39 H           9.5212   -1.7690    0.0000 H       1  UNL1        0.0260
     40 H          10.3681   -1.5420    0.0000 H       1  UNL1        0.0260
     41 H           4.0230    1.3660    0.0000 H       1  UNL1        0.0533
     42 H           3.0930    1.9030    0.0000 H       1  UNL1        0.0533
     43 H          11.7341   -0.5560    0.0000 H       1  UNL1        0.2106
@<TRIPOS>BOND
     1     1     3    1
     2     1    31    1
     3     2    10    1
     4     2    43    1
     5     3     4    1
     6     3     7    1
     7     3    11    1
     8     4     5    1
     9     4    18    1
    10     4    19    1
    11     5     6    1
    12     5    20    1
    13     5    21    1
    14     6     8    2
    15     6    22    1
    16     7    23    1
    17     7    24    1
    18     7    25    1
    19     8     9    1
    20     8    14    1
    21     9    13    1
    22     9    26    1
    23     9    27    1
    24    10    12    1
    25    10    15    1
    26    10    16    1
    27    11    17    2
    28    11    28    1
    29    12    13    2
    30    12    29    1
    31    13    30    1
    32    14    32    1
    33    14    33    1
    34    14    34    1
    35    15    35    1
    36    15    36    1
    37    15    37    1
    38    16    38    1
    39    16    39    1
    40    16    40    1
    41    17    41    1
    42    17    42    1
