@<TRIPOS>MOLECULE
IMPHY013422
 74 78 0 0 0
SMALL
GASTEIGER

@<TRIPOS>ATOM
      1 O           6.8671   -1.7856    0.0000 O.3     1  UNL1       -0.3609
      2 O           6.0010   -4.2857    0.0000 O.3     1  UNL1       -0.3461
      3 O           4.2690   -4.2857    0.0000 O.3     1  UNL1       -0.3431
      4 O           7.7331   -4.2857    0.0000 O.3     1  UNL1       -0.3865
      5 O           9.4651   -3.2856    0.0000 O.3     1  UNL1       -0.3865
      6 O           9.4651   -1.2856    0.0000 O.3     1  UNL1       -0.3862
      7 O           6.0010   -6.2857    0.0000 O.3     1  UNL1       -0.3841
      8 O           4.2690   -7.2856    0.0000 O.3     1  UNL1       -0.3864
      9 O           2.5369   -6.2857    0.0000 O.3     1  UNL1       -0.3866
     10 O           6.0010   -0.2856    0.0000 O.3     1  UNL1       -0.4945
     11 O           9.4651   -0.2856    0.0000 O.3     1  UNL1       -0.5054
     12 O           7.7170    2.7559    0.0000 O.2     1  UNL1       -0.4544
     13 O          10.3693    1.2112    0.0000 O.2     1  UNL1       -0.2869
     14 O           8.5996    7.2836    0.0000 O.3     1  UNL1       -0.5068
     15 C           6.8671   -2.7856    0.0000 C.3     1  UNL1        0.1112
     16 C           7.7331   -3.2856    0.0000 C.3     1  UNL1        0.1118
     17 C           8.5991   -2.7856    0.0000 C.3     1  UNL1        0.1121
     18 C           8.5991   -1.7856    0.0000 C.3     1  UNL1        0.1139
     19 C           7.7331   -1.2856    0.0000 C.3     1  UNL1        0.1193
     20 C           6.0010   -3.2856    0.0000 C.3     1  UNL1        0.0795
     21 C           5.1350   -4.7857    0.0000 C.3     1  UNL1        0.1879
     22 C           5.1350   -5.7857    0.0000 C.3     1  UNL1        0.1341
     23 C           4.2690   -6.2857    0.0000 C.3     1  UNL1        0.1140
     24 C           3.4030   -5.7857    0.0000 C.3     1  UNL1        0.1095
     25 C           3.4030   -4.7857    0.0000 C.3     1  UNL1        0.0873
     26 C           7.7331   -0.2856    0.0000 C.ar    1  UNL1        0.0676
     27 C           8.5991    0.2144    0.0000 C.ar    1  UNL1        0.1404
     28 C           2.5369   -4.2857    0.0000 C.3     1  UNL1       -0.0361
     29 C           6.8671    0.2144    0.0000 C.ar    1  UNL1        0.1328
     30 C           8.5991    1.2144    0.0000 C.ar    1  UNL1        0.1058
     31 C           6.8671    1.2144    0.0000 C.ar    1  UNL1        0.0237
     32 C           7.7331    1.7144    0.0000 C.ar    1  UNL1        0.1463
     33 C           9.5091    1.7212    0.0000 C.ar    1  UNL1        0.1966
     34 C           9.5171    2.7628    0.0000 C.ar    1  UNL1        0.0288
     35 C           8.6151    3.2836    0.0000 C.ar    1  UNL1        0.1392
     36 C           5.1350    0.2144    0.0000 C.3     1  UNL1        0.0788
     37 C           8.6112    4.2836    0.0000 C.ar    1  UNL1        0.0176
     38 C           7.7433    4.7803    0.0000 C.ar    1  UNL1       -0.0476
     39 C           9.4753    4.7869    0.0000 C.ar    1  UNL1       -0.0476
     40 C           7.7394    5.7802    0.0000 C.ar    1  UNL1       -0.0195
     41 C           9.4715    5.7869    0.0000 C.ar    1  UNL1       -0.0195
     42 C           8.6035    6.2836    0.0000 C.ar    1  UNL1        0.1169
     43 H           6.3301   -2.4756    0.0000 H       1  UNL1        0.0646
     44 H           8.2700   -3.5956    0.0000 H       1  UNL1        0.0647
     45 H           9.1360   -2.4756    0.0000 H       1  UNL1        0.0647
     46 H           8.5991   -1.1656    0.0000 H       1  UNL1        0.0649
     47 H           6.9970   -0.8606    0.0000 H       1  UNL1        0.0676
     48 H           5.7890   -2.7030    0.0000 H       1  UNL1        0.0587
     49 H           5.3905   -3.3933    0.0000 H       1  UNL1        0.0587
     50 H           5.1350   -4.1656    0.0000 H       1  UNL1        0.0937
     51 H           5.1350   -6.4056    0.0000 H       1  UNL1        0.0671
     52 H           3.7320   -6.5956    0.0000 H       1  UNL1        0.0648
     53 H           3.4030   -6.4056    0.0000 H       1  UNL1        0.0646
     54 H           3.4030   -4.1656    0.0000 H       1  UNL1        0.0621
     55 H           8.2700   -4.5956    0.0000 H       1  UNL1        0.2100
     56 H           9.4651   -3.9056    0.0000 H       1  UNL1        0.2100
     57 H          10.0021   -1.5956    0.0000 H       1  UNL1        0.2100
     58 H           2.8469   -3.7487    0.0000 H       1  UNL1        0.0255
     59 H           2.0000   -3.9756    0.0000 H       1  UNL1        0.0255
     60 H           2.2269   -4.8226    0.0000 H       1  UNL1        0.0255
     61 H           6.5380   -5.9756    0.0000 H       1  UNL1        0.2101
     62 H           3.7320   -7.5956    0.0000 H       1  UNL1        0.2100
     63 H           2.0000   -5.9756    0.0000 H       1  UNL1        0.2100
     64 H           6.3301    1.5244    0.0000 H       1  UNL1        0.0691
     65 H          10.0021    0.0244    0.0000 H       1  UNL1        0.2922
     66 H          10.0553    3.0707    0.0000 H       1  UNL1        0.0693
     67 H           5.4450    0.7513    0.0000 H       1  UNL1        0.0660
     68 H           4.5981    0.5244    0.0000 H       1  UNL1        0.0660
     69 H           4.8250   -0.3226    0.0000 H       1  UNL1        0.0660
     70 H           7.2075    4.4682    0.0000 H       1  UNL1        0.0626
     71 H          10.0134    4.4790    0.0000 H       1  UNL1        0.0626
     72 H           7.2013    6.0882    0.0000 H       1  UNL1        0.0654
     73 H          10.0072    6.0990    0.0000 H       1  UNL1        0.0654
     74 H           9.1354    7.5956    0.0000 H       1  UNL1        0.2921
@<TRIPOS>BOND
     1     1    15    1
     2     1    19    1
     3     2    20    1
     4    21     2    1
     5     3    21    1
     6     3    25    1
     7    16     4    1
     8     4    55    1
     9    17     5    1
    10     5    56    1
    11     6    18    1
    12     6    57    1
    13     7    22    1
    14     7    61    1
    15    23     8    1
    16     8    62    1
    17    24     9    1
    18     9    63    1
    19    10    29    1
    20    10    36    1
    21    11    27    1
    22    11    65    1
    23    12    32   ar
    24    12    35   ar
    25    13    33    2
    26    14    42    1
    27    14    74    1
    28    15    16    1
    29    15    20    1
    30    15    43    1
    31    16    17    1
    32    16    44    1
    33    17    18    1
    34    17    45    1
    35    18    19    1
    36    18    46    1
    37    19    26    1
    38    19    47    1
    39    20    48    1
    40    20    49    1
    41    21    22    1
    42    21    50    1
    43    22    23    1
    44    22    51    1
    45    23    24    1
    46    23    52    1
    47    24    25    1
    48    24    53    1
    49    25    28    1
    50    25    54    1
    51    26    27   ar
    52    26    29   ar
    53    27    30   ar
    54    28    58    1
    55    28    59    1
    56    28    60    1
    57    29    31   ar
    58    30    32   ar
    59    30    33   ar
    60    31    32   ar
    61    31    64    1
    62    33    34   ar
    63    34    35   ar
    64    34    66    1
    65    35    37    1
    66    36    67    1
    67    36    68    1
    68    36    69    1
    69    37    38   ar
    70    37    39   ar
    71    38    40   ar
    72    38    70    1
    73    39    41   ar
    74    39    71    1
    75    40    42   ar
    76    40    72    1
    77    41    42   ar
    78    41    73    1
