@<TRIPOS>MOLECULE
IMPHY007138
 34 34 0 0 0
SMALL
GASTEIGER

@<TRIPOS>ATOM
      1 O           3.3660    0.6340    0.0000 O.3     1  UNL1       -0.3796
      2 O           3.8660   -3.2320    0.0000 O.2     1  UNL1       -0.2927
      3 O           5.3660    2.3660    0.0000 O.2     1  UNL1       -0.2930
      4 C           3.0000   -0.7321    0.0000 C.3     1  UNL1        0.0084
      5 C           3.8660   -0.2321    0.0000 C.3     1  UNL1        0.1111
      6 C           3.0000   -1.7320    0.0000 C.3     1  UNL1        0.0182
      7 C           4.7320   -0.7321    0.0000 C.2     1  UNL1       -0.0339
      8 C           2.0000   -0.7321    0.0000 C.3     1  UNL1       -0.0562
      9 C           2.2340   -0.0893    0.0000 C.3     1  UNL1       -0.0562
     10 C           3.8660   -2.2320    0.0000 C.2     1  UNL1        0.1568
     11 C           4.3660    0.6340    0.0000 C.2     1  UNL1       -0.0450
     12 C           4.7320   -1.7320    0.0000 C.2     1  UNL1       -0.0172
     13 C           5.5981   -0.2321    0.0000 C.3     1  UNL1       -0.0404
     14 C           3.8660    1.5000    0.0000 C.2     1  UNL1       -0.0204
     15 C           4.3660    2.3660    0.0000 C.2     1  UNL1        0.1528
     16 C           3.8660    3.2320    0.0000 C.3     1  UNL1       -0.0020
     17 H           2.3894   -1.6244    0.0000 H       1  UNL1        0.0351
     18 H           2.7880   -2.3147    0.0000 H       1  UNL1        0.0351
     19 H           2.0000   -0.1121    0.0000 H       1  UNL1        0.0236
     20 H           1.3800   -0.7321    0.0000 H       1  UNL1        0.0236
     21 H           2.0000   -1.3520    0.0000 H       1  UNL1        0.0236
     22 H           2.6325    0.3857    0.0000 H       1  UNL1        0.0236
     23 H           1.7590    0.3093    0.0000 H       1  UNL1        0.0236
     24 H           1.8354   -0.5642    0.0000 H       1  UNL1        0.0236
     25 H           4.9860    0.6340    0.0000 H       1  UNL1        0.0605
     26 H           5.2690   -2.0420    0.0000 H       1  UNL1        0.0653
     27 H           2.7835    0.8461    0.0000 H       1  UNL1        0.2111
     28 H           5.9081   -0.7690    0.0000 H       1  UNL1        0.0275
     29 H           6.1350    0.0779    0.0000 H       1  UNL1        0.0275
     30 H           5.2881    0.3049    0.0000 H       1  UNL1        0.0275
     31 H           3.2460    1.5000    0.0000 H       1  UNL1        0.0650
     32 H           4.4030    3.5420    0.0000 H       1  UNL1        0.0309
     33 H           3.5560    3.7690    0.0000 H       1  UNL1        0.0309
     34 H           3.3291    2.9220    0.0000 H       1  UNL1        0.0309
@<TRIPOS>BOND
     1     5     1    1
     2     1    27    1
     3     2    10    2
     4     3    15    2
     5     4     5    1
     6     4     6    1
     7     4     8    1
     8     4     9    1
     9     5     7    1
    10     5    11    1
    11     6    10    1
    12     6    17    1
    13     6    18    1
    14     7    12    2
    15     7    13    1
    16     8    19    1
    17     8    20    1
    18     8    21    1
    19     9    22    1
    20     9    23    1
    21     9    24    1
    22    10    12    1
    23    11    14    2
    24    11    25    1
    25    12    26    1
    26    13    28    1
    27    13    29    1
    28    13    30    1
    29    14    15    1
    30    14    31    1
    31    15    16    1
    32    16    32    1
    33    16    33    1
    34    16    34    1
