@<TRIPOS>MOLECULE
IMPHY013416
 72 76 0 0 0
SMALL
GASTEIGER

@<TRIPOS>ATOM
      1 O           8.5991   -1.0000    0.0000 O.3     1  UNL1       -0.3609
      2 O           6.0010   -0.5000    0.0000 O.3     1  UNL1       -0.3399
      3 O           6.0010   -2.5000    0.0000 O.3     1  UNL1       -0.3865
      4 O           5.1350   -2.0000    0.0000 O.3     1  UNL1       -0.3461
      5 O           7.7331   -3.5000    0.0000 O.3     1  UNL1       -0.3865
      6 O           4.2690    0.5000    0.0000 O.3     1  UNL1       -0.3841
      7 O           2.5369   -0.5000    0.0000 O.3     1  UNL1       -0.3864
      8 O           9.4651   -3.5000    0.0000 O.3     1  UNL1       -0.3924
      9 O           2.5369   -2.5000    0.0000 O.3     1  UNL1       -0.3869
     10 O           9.4931    0.4653    0.0000 O.2     1  UNL1       -0.4540
     11 O           6.0010    0.5000    0.0000 O.3     1  UNL1       -0.5062
     12 O           7.7331    3.5000    0.0000 O.3     1  UNL1       -0.5058
     13 O           9.4815    3.5346    0.0000 O.2     1  UNL1       -0.2869
     14 O          12.1196   -2.0275    0.0000 O.3     1  UNL1       -0.4914
     15 O          13.8555   -1.0341    0.0000 O.3     1  UNL1       -0.5033
     16 C           6.8671   -1.0000    0.0000 C.3     1  UNL1        0.1204
     17 C           6.8671   -2.0000    0.0000 C.3     1  UNL1        0.1124
     18 C           7.7331   -0.5000    0.0000 C.3     1  UNL1        0.1197
     19 C           7.7331   -2.5000    0.0000 C.3     1  UNL1        0.1118
     20 C           8.5991   -2.0000    0.0000 C.3     1  UNL1        0.1108
     21 C           5.1350   -1.0000    0.0000 C.3     1  UNL1        0.1880
     22 C           7.7331    0.5000    0.0000 C.ar    1  UNL1        0.0682
     23 C           4.2690   -0.5000    0.0000 C.3     1  UNL1        0.1341
     24 C           3.4030   -1.0000    0.0000 C.3     1  UNL1        0.1137
     25 C           9.4651   -2.5000    0.0000 C.3     1  UNL1        0.0729
     26 C           3.4030   -2.0000    0.0000 C.3     1  UNL1        0.1069
     27 C           4.2690   -2.5000    0.0000 C.3     1  UNL1        0.0792
     28 C           8.5991    1.0000    0.0000 C.ar    1  UNL1        0.1520
     29 C           6.8671    1.0000    0.0000 C.ar    1  UNL1        0.1296
     30 C           8.5991    2.0000    0.0000 C.ar    1  UNL1        0.1058
     31 C           6.8671    2.0000    0.0000 C.ar    1  UNL1        0.0226
     32 C           7.7331    2.5000    0.0000 C.ar    1  UNL1        0.1347
     33 C           9.4931    2.5347    0.0000 C.ar    1  UNL1        0.1966
     34 C          10.3991    0.9792    0.0000 C.ar    1  UNL1        0.1394
     35 C          10.3991    2.0208    0.0000 C.ar    1  UNL1        0.0288
     36 C          11.2632    0.4758    0.0000 C.ar    1  UNL1        0.0211
     37 C          11.2594   -0.5241    0.0000 C.ar    1  UNL1       -0.0057
     38 C          12.1312    0.9725    0.0000 C.ar    1  UNL1       -0.0474
     39 C          12.1235   -1.0275    0.0000 C.ar    1  UNL1        0.1619
     40 C          12.9953    0.4692    0.0000 C.ar    1  UNL1       -0.0159
     41 C          12.9914   -0.5308    0.0000 C.ar    1  UNL1        0.1585
     42 C          12.9837   -2.5308    0.0000 C.3     1  UNL1        0.0790
     43 H           6.8671   -0.3800    0.0000 H       1  UNL1        0.0653
     44 H           6.3301   -1.6900    0.0000 H       1  UNL1        0.0647
     45 H           8.4692   -0.0750    0.0000 H       1  UNL1        0.0676
     46 H           8.2700   -2.8100    0.0000 H       1  UNL1        0.0647
     47 H           9.1360   -1.6900    0.0000 H       1  UNL1        0.0646
     48 H           5.1350   -0.3800    0.0000 H       1  UNL1        0.0937
     49 H           3.7320   -0.1900    0.0000 H       1  UNL1        0.0671
     50 H           3.4030   -0.3800    0.0000 H       1  UNL1        0.0647
     51 H          10.0757   -2.6077    0.0000 H       1  UNL1        0.0584
     52 H           9.6772   -1.9174    0.0000 H       1  UNL1        0.0584
     53 H           3.4030   -2.6200    0.0000 H       1  UNL1        0.0643
     54 H           3.8705   -2.9750    0.0000 H       1  UNL1        0.0587
     55 H           4.6675   -2.9750    0.0000 H       1  UNL1        0.0587
     56 H           6.0010   -3.1200    0.0000 H       1  UNL1        0.2100
     57 H           7.1962   -3.8100    0.0000 H       1  UNL1        0.2100
     58 H           3.7320    0.8100    0.0000 H       1  UNL1        0.2101
     59 H           6.3301    2.3100    0.0000 H       1  UNL1        0.0691
     60 H           2.0000   -0.8100    0.0000 H       1  UNL1        0.2100
     61 H          10.0021   -3.8100    0.0000 H       1  UNL1        0.2095
     62 H           2.5369   -3.1200    0.0000 H       1  UNL1        0.2100
     63 H           5.4641    0.8100    0.0000 H       1  UNL1        0.2922
     64 H          10.9349    2.3329    0.0000 H       1  UNL1        0.0693
     65 H           7.1962    3.8100    0.0000 H       1  UNL1        0.2922
     66 H          10.7212   -0.8321    0.0000 H       1  UNL1        0.0662
     67 H          12.1336    1.5925    0.0000 H       1  UNL1        0.0626
     68 H          13.5334    0.7771    0.0000 H       1  UNL1        0.0655
     69 H          14.3936   -0.7262    0.0000 H       1  UNL1        0.2923
     70 H          12.6716   -3.0665    0.0000 H       1  UNL1        0.0660
     71 H          13.5194   -2.8429    0.0000 H       1  UNL1        0.0660
     72 H          13.2958   -1.9951    0.0000 H       1  UNL1        0.0660
@<TRIPOS>BOND
     1     1    18    1
     2     1    20    1
     3     2    16    1
     4    21     2    1
     5    17     3    1
     6     3    56    1
     7     4    21    1
     8     4    27    1
     9    19     5    1
    10     5    57    1
    11     6    23    1
    12     6    58    1
    13    24     7    1
    14     7    60    1
    15     8    25    1
    16     8    61    1
    17    26     9    1
    18     9    62    1
    19    10    28   ar
    20    10    34   ar
    21    11    29    1
    22    11    63    1
    23    12    32    1
    24    12    65    1
    25    13    33    2
    26    14    39    1
    27    14    42    1
    28    15    41    1
    29    15    69    1
    30    16    17    1
    31    16    18    1
    32    16    43    1
    33    17    19    1
    34    17    44    1
    35    18    22    1
    36    18    45    1
    37    19    20    1
    38    19    46    1
    39    20    25    1
    40    20    47    1
    41    21    23    1
    42    21    48    1
    43    22    28   ar
    44    22    29   ar
    45    23    24    1
    46    23    49    1
    47    24    26    1
    48    24    50    1
    49    25    51    1
    50    25    52    1
    51    26    27    1
    52    26    53    1
    53    27    54    1
    54    27    55    1
    55    28    30   ar
    56    29    31   ar
    57    30    32   ar
    58    30    33   ar
    59    31    32   ar
    60    31    59    1
    61    33    35   ar
    62    34    35   ar
    63    34    36    1
    64    35    64    1
    65    36    37   ar
    66    36    38   ar
    67    37    39   ar
    68    37    66    1
    69    38    40   ar
    70    38    67    1
    71    39    41   ar
    72    40    41   ar
    73    40    68    1
    74    42    70    1
    75    42    71    1
    76    42    72    1
