@<TRIPOS>MOLECULE
IMPHY008522
 103 108 0 0 0
SMALL
GASTEIGER

@<TRIPOS>ATOM
      1 O           6.8671   -3.1941    0.0000 O.3     1  UNL1       -0.3418
      2 O           5.0597   -2.1413    0.0000 O.3     1  UNL1       -0.3892
      3 O           9.3112   -2.5024    0.0000 O.3     1  UNL1       -0.4802
      4 O           8.6209    6.0853    0.0000 O.3     1  UNL1       -0.4802
      5 O           7.8180   -3.3800    0.0000 O.2     1  UNL1       -0.2503
      6 O           9.5042    4.5954    0.0000 O.2     1  UNL1       -0.2504
      7 O           5.1350   -3.1941    0.0000 O.3     1  UNL1       -0.3405
      8 O           6.8671   -5.1941    0.0000 O.3     1  UNL1       -0.3841
      9 O           5.1350   -6.1941    0.0000 O.3     1  UNL1       -0.3864
     10 O           3.4030   -5.1941    0.0000 O.3     1  UNL1       -0.3865
     11 O           2.5369   -3.6941    0.0000 O.3     1  UNL1       -0.3924
     12 C           7.7681    1.5061    0.0000 C.3     1  UNL1       -0.0194
     13 C           6.9040    1.0028    0.0000 C.3     1  UNL1       -0.0256
     14 C           6.8920   -0.0388    0.0000 C.3     1  UNL1       -0.0221
     15 C           7.7643    2.5061    0.0000 C.3     1  UNL1       -0.0051
     16 C           7.7920   -0.5631    0.0000 C.3     1  UNL1       -0.0172
     17 C           8.6801    1.0028    0.0000 C.3     1  UNL1       -0.0463
     18 C           6.8963    3.0027    0.0000 C.2     1  UNL1       -0.0629
     19 C           8.6921   -0.0388    0.0000 C.3     1  UNL1       -0.0481
     20 C           7.8046   -1.6480    0.0000 C.3     1  UNL1        0.0966
     21 C           6.8762    4.0442    0.0000 C.3     1  UNL1       -0.0031
     22 C           6.0361    1.4994    0.0000 C.3     1  UNL1       -0.0306
     23 C           5.9421   -0.5631    0.0000 C.3     1  UNL1       -0.0184
     24 C           8.6723    3.0164    0.0000 C.3     1  UNL1       -0.0424
     25 C           7.7722    4.5754    0.0000 C.3     1  UNL1        0.0741
     26 C           8.7522    1.6835    0.0000 C.3     1  UNL1       -0.0585
     27 C           8.6763    4.0580    0.0000 C.3     1  UNL1       -0.0359
     28 C           6.8671   -2.1941    0.0000 C.3     1  UNL1        0.1033
     29 C           5.9295   -1.6480    0.0000 C.3     1  UNL1        0.0830
     30 C           6.0322    2.4994    0.0000 C.2     1  UNL1       -0.0836
     31 C           6.0279    0.4645    0.0000 C.3     1  UNL1       -0.0589
     32 C           8.7497    2.3362    0.0000 C.3     1  UNL1       -0.0553
     33 C           5.9223    4.5611    0.0000 C.3     1  UNL1       -0.0403
     34 C           7.7764    5.6604    0.0000 C.3     1  UNL1       -0.0362
     35 C           5.9014    5.6459    0.0000 C.3     1  UNL1       -0.0343
     36 C           8.8046   -1.6403    0.0000 C.3     1  UNL1       -0.0466
     37 C           6.8347    6.1992    0.0000 C.3     1  UNL1       -0.0468
     38 C           8.3113   -2.5102    0.0000 C.2     1  UNL1        0.3136
     39 C           8.6324    5.0854    0.0000 C.2     1  UNL1        0.3115
     40 C           5.3881    6.5041    0.0000 C.3     1  UNL1       -0.0598
     41 C           4.9015    5.6305    0.0000 C.3     1  UNL1       -0.0598
     42 C           6.0010   -3.6941    0.0000 C.3     1  UNL1        0.1884
     43 C           6.0010   -4.6941    0.0000 C.3     1  UNL1        0.1341
     44 C           5.1350   -5.1941    0.0000 C.3     1  UNL1        0.1141
     45 C           4.2690   -3.6941    0.0000 C.3     1  UNL1        0.1130
     46 C           4.2690   -4.6941    0.0000 C.3     1  UNL1        0.1119
     47 C           3.4030   -3.1941    0.0000 C.3     1  UNL1        0.0730
     48 H           7.6385    0.5749    0.0000 H       1  UNL1        0.0315
     49 H           8.3314   -0.8689    0.0000 H       1  UNL1        0.0317
     50 H           9.2921    0.9037    0.0000 H       1  UNL1        0.0271
     51 H           8.8824    1.5888    0.0000 H       1  UNL1        0.0271
     52 H           8.9079   -0.6200    0.0000 H       1  UNL1        0.0269
     53 H           9.3017    0.0743    0.0000 H       1  UNL1        0.0269
     54 H           6.1502    3.6023    0.0000 H       1  UNL1        0.0357
     55 H           5.4251    1.6047    0.0000 H       1  UNL1        0.0310
     56 H           5.8263    0.9160    0.0000 H       1  UNL1        0.0310
     57 H           5.7398    0.0230    0.0000 H       1  UNL1        0.0296
     58 H           5.3300   -0.6621    0.0000 H       1  UNL1        0.0296
     59 H           8.8791    2.4319    0.0000 H       1  UNL1        0.0274
     60 H           9.2836    3.1202    0.0000 H       1  UNL1        0.0274
     61 H           8.8623    1.0734    0.0000 H       1  UNL1        0.0235
     62 H           9.3624    1.7936    0.0000 H       1  UNL1        0.0235
     63 H           8.6422    2.2937    0.0000 H       1  UNL1        0.0235
     64 H           9.2868    3.9496    0.0000 H       1  UNL1        0.0276
     65 H           8.8876    4.6409    0.0000 H       1  UNL1        0.0276
     66 H           7.4046   -2.5031    0.0000 H       1  UNL1        0.0634
     67 H           5.3956   -1.3329    0.0000 H       1  UNL1        0.0619
     68 H           5.4941    2.8073    0.0000 H       1  UNL1        0.0572
     69 H           6.3400    1.0003    0.0000 H       1  UNL1        0.0235
     70 H           5.4922    0.7766    0.0000 H       1  UNL1        0.0235
     71 H           5.7158   -0.0712    0.0000 H       1  UNL1        0.0235
     72 H           8.6444    1.7252    0.0000 H       1  UNL1        0.0238
     73 H           9.3607    2.2309    0.0000 H       1  UNL1        0.0238
     74 H           8.8550    2.9472    0.0000 H       1  UNL1        0.0238
     75 H           5.3095    4.6554    0.0000 H       1  UNL1        0.0276
     76 H           5.7246    3.9735    0.0000 H       1  UNL1        0.0276
     77 H           8.3869    5.5519    0.0000 H       1  UNL1        0.0276
     78 H           7.9877    6.2433    0.0000 H       1  UNL1        0.0276
     79 H           8.8094   -2.2603    0.0000 H       1  UNL1        0.0241
     80 H           9.4246   -1.6355    0.0000 H       1  UNL1        0.0241
     81 H           8.7998   -1.0203    0.0000 H       1  UNL1        0.0241
     82 H           7.2302    6.6767    0.0000 H       1  UNL1        0.0271
     83 H           6.4319    6.6706    0.0000 H       1  UNL1        0.0271
     84 H           5.9202    6.8224    0.0000 H       1  UNL1        0.0235
     85 H           5.0699    7.0362    0.0000 H       1  UNL1        0.0235
     86 H           4.8560    6.1859    0.0000 H       1  UNL1        0.0235
     87 H           4.8920    6.2504    0.0000 H       1  UNL1        0.0235
     88 H           4.2816    5.6209    0.0000 H       1  UNL1        0.0235
     89 H           4.9111    5.0106    0.0000 H       1  UNL1        0.0235
     90 H           4.5251   -1.8272    0.0000 H       1  UNL1        0.2099
     91 H           6.0010   -3.0741    0.0000 H       1  UNL1        0.0938
     92 H           9.6254   -3.0370    0.0000 H       1  UNL1        0.2951
     93 H           9.1542    6.4015    0.0000 H       1  UNL1        0.2951
     94 H           6.0010   -5.3141    0.0000 H       1  UNL1        0.0671
     95 H           4.5981   -5.5041    0.0000 H       1  UNL1        0.0648
     96 H           4.2690   -3.0741    0.0000 H       1  UNL1        0.0647
     97 H           4.2690   -5.3141    0.0000 H       1  UNL1        0.0647
     98 H           6.8671   -5.8141    0.0000 H       1  UNL1        0.2101
     99 H           3.8015   -2.7192    0.0000 H       1  UNL1        0.0584
    100 H           3.0044   -2.7192    0.0000 H       1  UNL1        0.0584
    101 H           4.5981   -6.5041    0.0000 H       1  UNL1        0.2100
    102 H           3.4030   -5.8141    0.0000 H       1  UNL1        0.2100
    103 H           2.0000   -3.3841    0.0000 H       1  UNL1        0.2095
@<TRIPOS>BOND
     1    28     1    1
     2    42     1    1
     3    29     2    1
     4     2    90    1
     5     3    38    1
     6     3    92    1
     7     4    39    1
     8     4    93    1
     9     5    38    2
    10     6    39    2
    11     7    42    1
    12     7    45    1
    13    43     8    1
    14     8    98    1
    15    44     9    1
    16     9   101    1
    17    46    10    1
    18    10   102    1
    19    11    47    1
    20    11   103    1
    21    12    13    1
    22    12    15    1
    23    12    17    1
    24    12    26    1
    25    13    14    1
    26    13    22    1
    27    13    48    1
    28    14    16    1
    29    14    23    1
    30    14    31    1
    31    15    18    1
    32    15    24    1
    33    15    32    1
    34    16    19    1
    35    16    20    1
    36    16    49    1
    37    17    19    1
    38    17    50    1
    39    17    51    1
    40    18    21    1
    41    18    30    2
    42    19    52    1
    43    19    53    1
    44    20    28    1
    45    20    36    1
    46    20    38    1
    47    21    25    1
    48    21    33    1
    49    21    54    1
    50    22    30    1
    51    22    55    1
    52    22    56    1
    53    23    29    1
    54    23    57    1
    55    23    58    1
    56    24    27    1
    57    24    59    1
    58    24    60    1
    59    25    27    1
    60    25    34    1
    61    25    39    1
    62    26    61    1
    63    26    62    1
    64    26    63    1
    65    27    64    1
    66    27    65    1
    67    28    29    1
    68    28    66    1
    69    29    67    1
    70    30    68    1
    71    31    69    1
    72    31    70    1
    73    31    71    1
    74    32    72    1
    75    32    73    1
    76    32    74    1
    77    33    35    1
    78    33    75    1
    79    33    76    1
    80    34    37    1
    81    34    77    1
    82    34    78    1
    83    35    37    1
    84    35    40    1
    85    35    41    1
    86    36    79    1
    87    36    80    1
    88    36    81    1
    89    37    82    1
    90    37    83    1
    91    40    84    1
    92    40    85    1
    93    40    86    1
    94    41    87    1
    95    41    88    1
    96    41    89    1
    97    42    43    1
    98    42    91    1
    99    43    44    1
   100    43    94    1
   101    44    46    1
   102    44    95    1
   103    45    46    1
   104    45    47    1
   105    45    96    1
   106    46    97    1
   107    47    99    1
   108    47   100    1
