@<TRIPOS>MOLECULE
IMPHY009409
 80 84 0 0 0
SMALL
GASTEIGER

@<TRIPOS>ATOM
      1 O           2.0000   -1.8922    0.0000 O.2     1  UNL1       -0.2967
      2 O           3.8143   -3.6701    0.0000 O.3     1  UNL1       -0.3940
      3 O          10.9251    1.1943    0.0000 O.3     1  UNL1       -0.4802
      4 O          10.0707   -0.3123    0.0000 O.2     1  UNL1       -0.2504
      5 C           6.5271   -0.3398    0.0000 C.3     1  UNL1       -0.0194
      6 C           5.6610    0.1601    0.0000 C.3     1  UNL1       -0.0257
      7 C           7.3931    0.1601    0.0000 C.3     1  UNL1       -0.0051
      8 C           4.7510   -0.3467    0.0000 C.3     1  UNL1       -0.0243
      9 C           4.7430   -1.3883    0.0000 C.3     1  UNL1       -0.0211
     10 C           6.5431   -1.3814    0.0000 C.3     1  UNL1       -0.0463
     11 C           7.3931    1.1602    0.0000 C.2     1  UNL1       -0.0629
     12 C           8.2870    1.6948    0.0000 C.3     1  UNL1       -0.0031
     13 C           5.6451   -1.9091    0.0000 C.3     1  UNL1       -0.0482
     14 C           8.2870   -0.3745    0.0000 C.3     1  UNL1       -0.0424
     15 C           5.6610    1.1602    0.0000 C.3     1  UNL1       -0.0306
     16 C           9.1931    1.1810    0.0000 C.3     1  UNL1        0.0741
     17 C           3.8076   -1.9380    0.0000 C.3     1  UNL1        0.0525
     18 C           3.8242    0.2174    0.0000 C.3     1  UNL1       -0.0404
     19 C           9.1931    0.1393    0.0000 C.3     1  UNL1       -0.0359
     20 C           7.1698   -1.1059    0.0000 C.3     1  UNL1       -0.0585
     21 C           6.5271    1.6602    0.0000 C.2     1  UNL1       -0.0836
     22 C           7.7352   -0.7795    0.0000 C.3     1  UNL1       -0.0553
     23 C           4.7587    0.6533    0.0000 C.3     1  UNL1       -0.0590
     24 C           8.2619    2.7795    0.0000 C.3     1  UNL1       -0.0403
     25 C          10.1369    1.7162    0.0000 C.3     1  UNL1       -0.0362
     26 C           2.8763   -0.3106    0.0000 C.3     1  UNL1        0.0070
     27 C           9.1931    3.3364    0.0000 C.3     1  UNL1       -0.0343
     28 C           2.8680   -1.3955    0.0000 C.2     1  UNL1        0.1417
     29 C          10.1369    2.8012    0.0000 C.3     1  UNL1       -0.0468
     30 C           3.3109   -2.8060    0.0000 C.3     1  UNL1        0.0565
     31 C           4.3109   -2.8021    0.0000 C.3     1  UNL1       -0.0504
     32 C          10.0629    0.6877    0.0000 C.2     1  UNL1        0.3115
     33 C           9.6830    4.2082    0.0000 C.3     1  UNL1       -0.0598
     34 C           8.6831    4.1966    0.0000 C.3     1  UNL1       -0.0598
     35 H           6.3972    0.5851    0.0000 H       1  UNL1        0.0315
     36 H           4.7463   -2.2383    0.0000 H       1  UNL1        0.0316
     37 H           6.7612   -1.9618    0.0000 H       1  UNL1        0.0271
     38 H           7.1523   -1.2659    0.0000 H       1  UNL1        0.0271
     39 H           9.0165    2.1311    0.0000 H       1  UNL1        0.0357
     40 H           5.2478   -2.3851    0.0000 H       1  UNL1        0.0269
     41 H           6.0460   -2.3820    0.0000 H       1  UNL1        0.0269
     42 H           7.8824   -0.8443    0.0000 H       1  UNL1        0.0274
     43 H           8.6806   -0.8535    0.0000 H       1  UNL1        0.0274
     44 H           5.4490    1.7428    0.0000 H       1  UNL1        0.0310
     45 H           5.0504    1.0525    0.0000 H       1  UNL1        0.0310
     46 H           4.2324    0.6840    0.0000 H       1  UNL1        0.0275
     47 H           3.4343    0.6994    0.0000 H       1  UNL1        0.0275
     48 H           9.4022   -0.4444    0.0000 H       1  UNL1        0.0276
     49 H           9.8040    0.2454    0.0000 H       1  UNL1        0.0276
     50 H           6.6949   -1.5044    0.0000 H       1  UNL1        0.0235
     51 H           7.5684   -1.5808    0.0000 H       1  UNL1        0.0235
     52 H           7.6448   -0.7074    0.0000 H       1  UNL1        0.0235
     53 H           6.5271    2.2802    0.0000 H       1  UNL1        0.0572
     54 H           7.1526   -0.9916    0.0000 H       1  UNL1        0.0238
     55 H           7.9473   -1.3621    0.0000 H       1  UNL1        0.0238
     56 H           8.3178   -0.5674    0.0000 H       1  UNL1        0.0238
     57 H           5.3787    0.6485    0.0000 H       1  UNL1        0.0235
     58 H           4.7635    1.2733    0.0000 H       1  UNL1        0.0235
     59 H           4.1388    0.6581    0.0000 H       1  UNL1        0.0235
     60 H           8.0394    3.3582    0.0000 H       1  UNL1        0.0276
     61 H           7.6537    2.6593    0.0000 H       1  UNL1        0.0276
     62 H          10.3459    1.1325    0.0000 H       1  UNL1        0.0276
     63 H          10.7477    1.8223    0.0000 H       1  UNL1        0.0276
     64 H           2.6718    0.2747    0.0000 H       1  UNL1        0.0342
     65 H           2.2647   -0.4119    0.0000 H       1  UNL1        0.0342
     66 H          10.7477    2.6951    0.0000 H       1  UNL1        0.0271
     67 H          10.3459    3.3849    0.0000 H       1  UNL1        0.0271
     68 H           2.8344   -2.4093    0.0000 H       1  UNL1        0.0567
     69 H           2.8375   -3.2063    0.0000 H       1  UNL1        0.0567
     70 H           3.7752   -3.1142    0.0000 H       1  UNL1        0.0240
     71 H           4.6230   -3.3378    0.0000 H       1  UNL1        0.0240
     72 H           4.8466   -2.4900    0.0000 H       1  UNL1        0.0240
     73 H           9.2164    4.5128    0.0000 H       1  UNL1        0.0235
     74 H           8.3669    4.7299    0.0000 H       1  UNL1        0.0235
     75 H           8.1498    3.8804    0.0000 H       1  UNL1        0.0235
     76 H          10.2235    3.9044    0.0000 H       1  UNL1        0.0235
     77 H           9.9868    4.7487    0.0000 H       1  UNL1        0.0235
     78 H           9.1426    4.5120    0.0000 H       1  UNL1        0.0235
     79 H           3.5063   -4.2082    0.0000 H       1  UNL1        0.2094
     80 H          11.4644    0.8885    0.0000 H       1  UNL1        0.2951
@<TRIPOS>BOND
     1     1    28    2
     2     2    30    1
     3     2    79    1
     4     3    32    1
     5     3    80    1
     6     4    32    2
     7     5     6    1
     8     5     7    1
     9     5    10    1
    10     5    20    1
    11     6     8    1
    12     6    15    1
    13     6    35    1
    14     7    11    1
    15     7    14    1
    16     7    22    1
    17     8     9    1
    18     8    18    1
    19     8    23    1
    20     9    13    1
    21     9    17    1
    22     9    36    1
    23    10    13    1
    24    10    37    1
    25    10    38    1
    26    11    12    1
    27    11    21    2
    28    12    16    1
    29    12    24    1
    30    12    39    1
    31    13    40    1
    32    13    41    1
    33    14    19    1
    34    14    42    1
    35    14    43    1
    36    15    21    1
    37    15    44    1
    38    15    45    1
    39    16    19    1
    40    16    25    1
    41    16    32    1
    42    17    28    1
    43    17    30    1
    44    17    31    1
    45    18    26    1
    46    18    46    1
    47    18    47    1
    48    19    48    1
    49    19    49    1
    50    20    50    1
    51    20    51    1
    52    20    52    1
    53    21    53    1
    54    22    54    1
    55    22    55    1
    56    22    56    1
    57    23    57    1
    58    23    58    1
    59    23    59    1
    60    24    27    1
    61    24    60    1
    62    24    61    1
    63    25    29    1
    64    25    62    1
    65    25    63    1
    66    26    28    1
    67    26    64    1
    68    26    65    1
    69    27    29    1
    70    27    33    1
    71    27    34    1
    72    29    66    1
    73    29    67    1
    74    30    68    1
    75    30    69    1
    76    31    70    1
    77    31    71    1
    78    31    72    1
    79    33    76    1
    80    33    77    1
    81    33    78    1
    82    34    73    1
    83    34    74    1
    84    34    75    1
