@<TRIPOS>MOLECULE
IMPHY013350
 105 110 0 0 0
SMALL
GASTEIGER

@<TRIPOS>ATOM
      1 O           8.0679   -2.6151    0.0000 O.3     1  UNL1       -0.4577
      2 O           7.1961   -1.1184    0.0000 O.2     1  UNL1       -0.2456
      3 O           2.0038   -2.1384    0.0000 O.3     1  UNL1       -0.4914
      4 O           2.0116   -4.1384    0.0000 O.3     1  UNL1       -0.5033
      5 C          11.5980   -0.5909    0.0000 C.3     1  UNL1       -0.0171
      6 C          10.7320   -1.0909    0.0000 C.3     1  UNL1       -0.0190
      7 C          12.4641   -1.0909    0.0000 C.3     1  UNL1       -0.0225
      8 C          10.7318   -0.0905    0.0000 C.3     1  UNL1       -0.0399
      9 C          10.7320   -2.0909    0.0000 C.3     1  UNL1       -0.0263
     10 C          13.3741   -0.5841    0.0000 C.3     1  UNL1       -0.0294
     11 C          11.5820    0.4506    0.0000 C.3     1  UNL1       -0.0458
     12 C          13.3821    0.4575    0.0000 C.3     1  UNL1       -0.0256
     13 C           9.8381   -0.5562    0.0000 C.3     1  UNL1       -0.0432
     14 C          12.4641   -2.0909    0.0000 C.3     1  UNL1       -0.0465
     15 C          11.5980   -2.5909    0.0000 C.3     1  UNL1       -0.0486
     16 C           9.8381   -2.6256    0.0000 C.3     1  UNL1        0.0055
     17 C          12.4800    0.9784    0.0000 C.3     1  UNL1       -0.0466
     18 C          13.3301   -1.5909    0.0000 C.3     1  UNL1       -0.0588
     19 C          14.3701    0.7674    0.0000 C.3     1  UNL1       -0.0328
     20 C          14.3572   -0.9091    0.0000 C.3     1  UNL1       -0.0489
     21 C           8.9320   -1.0701    0.0000 C.3     1  UNL1       -0.0146
     22 C           8.9320   -2.1117    0.0000 C.3     1  UNL1        0.1088
     23 C          14.9716   -0.0755    0.0000 C.3     1  UNL1       -0.0492
     24 C          13.3898    1.4575    0.0000 C.3     1  UNL1       -0.0590
     25 C           9.3481   -3.4973    0.0000 C.3     1  UNL1       -0.0562
     26 C          10.3481   -3.4858    0.0000 C.3     1  UNL1       -0.0562
     27 C          14.6881    1.7154    0.0000 C.3     1  UNL1       -0.0403
     28 C          15.6682    1.9141    0.0000 C.3     1  UNL1       -0.0465
     29 C          14.0260    2.4649    0.0000 C.3     1  UNL1       -0.0621
     30 C           7.2000   -2.1184    0.0000 C.2     1  UNL1        0.3322
     31 C          15.9862    2.8622    0.0000 C.3     1  UNL1       -0.0315
     32 C          16.9662    3.0609    0.0000 C.2     1  UNL1       -0.0740
     33 C           6.3359   -2.6217    0.0000 C.2     1  UNL1        0.0231
     34 C          17.2842    4.0090    0.0000 C.3     1  UNL1       -0.0258
     35 C          17.6283    2.3114    0.0000 C.2     1  UNL1       -0.0992
     36 C           5.4679   -2.1251    0.0000 C.2     1  UNL1       -0.0477
     37 C          18.2643    4.2076    0.0000 C.3     1  UNL1       -0.0590
     38 C          16.6221    4.7584    0.0000 C.3     1  UNL1       -0.0590
     39 C           4.6038   -2.6284    0.0000 C.ar    1  UNL1       -0.0211
     40 C           3.7359   -2.1317    0.0000 C.ar    1  UNL1       -0.0092
     41 C           4.6077   -3.6284    0.0000 C.ar    1  UNL1       -0.0509
     42 C           2.8718   -2.6351    0.0000 C.ar    1  UNL1        0.1618
     43 C           3.7436   -4.1317    0.0000 C.ar    1  UNL1       -0.0160
     44 C           2.8757   -3.6351    0.0000 C.ar    1  UNL1        0.1585
     45 C           2.0000   -1.1384    0.0000 C.3     1  UNL1        0.0790
     46 H          10.9439    0.4921    0.0000 H       1  UNL1        0.0277
     47 H          10.1212    0.0171    0.0000 H       1  UNL1        0.0277
     48 H          10.7386   -2.9409    0.0000 H       1  UNL1        0.0313
     49 H          13.8780   -0.2229    0.0000 H       1  UNL1        0.0312
     50 H          11.3640    1.0310    0.0000 H       1  UNL1        0.0271
     51 H          10.9728    0.3351    0.0000 H       1  UNL1        0.0271
     52 H          10.2427   -0.0865    0.0000 H       1  UNL1        0.0272
     53 H           9.4444   -0.0772    0.0000 H       1  UNL1        0.0272
     54 H          12.6761   -2.6735    0.0000 H       1  UNL1        0.0271
     55 H          13.0746   -1.9832    0.0000 H       1  UNL1        0.0271
     56 H          11.1995   -3.0659    0.0000 H       1  UNL1        0.0268
     57 H          11.9966   -3.0659    0.0000 H       1  UNL1        0.0268
     58 H          12.8773    1.4543    0.0000 H       1  UNL1        0.0271
     59 H          12.0791    1.4512    0.0000 H       1  UNL1        0.0271
     60 H          13.0201   -2.1278    0.0000 H       1  UNL1        0.0235
     61 H          13.8670   -1.9009    0.0000 H       1  UNL1        0.0235
     62 H          13.6401   -1.0540    0.0000 H       1  UNL1        0.0235
     63 H          15.2108    0.8928    0.0000 H       1  UNL1        0.0309
     64 H          14.1018   -1.4740    0.0000 H       1  UNL1        0.0268
     65 H          14.8922   -1.2224    0.0000 H       1  UNL1        0.0268
     66 H           8.7230   -0.4864    0.0000 H       1  UNL1        0.0301
     67 H           8.3212   -1.1762    0.0000 H       1  UNL1        0.0301
     68 H           8.3945   -1.8028    0.0000 H       1  UNL1        0.0739
     69 H          15.4292   -0.4938    0.0000 H       1  UNL1        0.0268
     70 H          15.4356    0.3356    0.0000 H       1  UNL1        0.0268
     71 H          14.0098    1.4527    0.0000 H       1  UNL1        0.0235
     72 H          13.3946    2.0775    0.0000 H       1  UNL1        0.0235
     73 H          12.7698    1.4623    0.0000 H       1  UNL1        0.0235
     74 H           8.8076   -3.1936    0.0000 H       1  UNL1        0.0236
     75 H           9.0444   -4.0378    0.0000 H       1  UNL1        0.0236
     76 H           9.8886   -3.8011    0.0000 H       1  UNL1        0.0236
     77 H           9.8147   -3.8019    0.0000 H       1  UNL1        0.0236
     78 H          10.6642   -4.0191    0.0000 H       1  UNL1        0.0236
     79 H          10.8814   -3.1696    0.0000 H       1  UNL1        0.0236
     80 H          14.0805    1.5923    0.0000 H       1  UNL1        0.0301
     81 H          15.6840    1.2943    0.0000 H       1  UNL1        0.0271
     82 H          16.2813    1.8220    0.0000 H       1  UNL1        0.0271
     83 H          14.4907    2.8754    0.0000 H       1  UNL1        0.0233
     84 H          13.6155    2.9295    0.0000 H       1  UNL1        0.0233
     85 H          13.5614    2.0544    0.0000 H       1  UNL1        0.0233
     86 H          15.9704    3.4820    0.0000 H       1  UNL1        0.0310
     87 H          15.3730    2.9543    0.0000 H       1  UNL1        0.0310
     88 H           6.3383   -3.2417    0.0000 H       1  UNL1        0.0689
     89 H          16.6766    3.8858    0.0000 H       1  UNL1        0.0340
     90 H          17.4312    1.7236    0.0000 H       1  UNL1        0.0534
     91 H          18.2359    2.4346    0.0000 H       1  UNL1        0.0534
     92 H           5.4655   -1.5051    0.0000 H       1  UNL1        0.0626
     93 H          18.3874    3.6000    0.0000 H       1  UNL1        0.0235
     94 H          18.8719    4.3308    0.0000 H       1  UNL1        0.0235
     95 H          18.1411    4.8153    0.0000 H       1  UNL1        0.0235
     96 H          17.0868    5.1689    0.0000 H       1  UNL1        0.0235
     97 H          16.2116    5.2230    0.0000 H       1  UNL1        0.0235
     98 H          16.1575    4.3479    0.0000 H       1  UNL1        0.0235
     99 H           3.7335   -1.5118    0.0000 H       1  UNL1        0.0661
    100 H           5.1458   -3.9363    0.0000 H       1  UNL1        0.0625
    101 H           3.7460   -4.7517    0.0000 H       1  UNL1        0.0655
    102 H           2.0140   -4.7584    0.0000 H       1  UNL1        0.2923
    103 H           2.6200   -1.1360    0.0000 H       1  UNL1        0.0660
    104 H           1.9976   -0.5184    0.0000 H       1  UNL1        0.0660
    105 H           1.3800   -1.1408    0.0000 H       1  UNL1        0.0660
@<TRIPOS>BOND
     1    22     1    1
     2     1    30    1
     3     2    30    2
     4     3    42    1
     5     3    45    1
     6     4    44    1
     7     4   102    1
     8     5     6    1
     9     5     7    1
    10     5     8    1
    11     5    11    1
    12     6     8    1
    13     6     9    1
    14     6    13    1
    15     7    10    1
    16     7    14    1
    17     7    18    1
    18     8    46    1
    19     8    47    1
    20     9    15    1
    21     9    16    1
    22     9    48    1
    23    10    12    1
    24    10    20    1
    25    10    49    1
    26    11    17    1
    27    11    50    1
    28    11    51    1
    29    12    17    1
    30    12    19    1
    31    12    24    1
    32    13    21    1
    33    13    52    1
    34    13    53    1
    35    14    15    1
    36    14    54    1
    37    14    55    1
    38    15    56    1
    39    15    57    1
    40    16    22    1
    41    16    25    1
    42    16    26    1
    43    17    58    1
    44    17    59    1
    45    18    60    1
    46    18    61    1
    47    18    62    1
    48    19    23    1
    49    19    27    1
    50    19    63    1
    51    20    23    1
    52    20    64    1
    53    20    65    1
    54    21    22    1
    55    21    66    1
    56    21    67    1
    57    22    68    1
    58    23    69    1
    59    23    70    1
    60    24    71    1
    61    24    72    1
    62    24    73    1
    63    25    74    1
    64    25    75    1
    65    25    76    1
    66    26    77    1
    67    26    78    1
    68    26    79    1
    69    27    28    1
    70    27    29    1
    71    27    80    1
    72    28    31    1
    73    28    81    1
    74    28    82    1
    75    29    83    1
    76    29    84    1
    77    29    85    1
    78    30    33    1
    79    31    32    1
    80    31    86    1
    81    31    87    1
    82    32    34    1
    83    32    35    2
    84    33    36    2
    85    33    88    1
    86    34    37    1
    87    34    38    1
    88    34    89    1
    89    35    90    1
    90    35    91    1
    91    36    39    1
    92    36    92    1
    93    37    93    1
    94    37    94    1
    95    37    95    1
    96    38    96    1
    97    38    97    1
    98    38    98    1
    99    39    40   ar
   100    39    41   ar
   101    40    42   ar
   102    40    99    1
   103    41    43   ar
   104    41   100    1
   105    42    44   ar
   106    43    44   ar
   107    43   101    1
   108    45   103    1
   109    45   104    1
   110    45   105    1
