@<TRIPOS>MOLECULE
IMPHY008808
 81 85 0 0 0
SMALL
GASTEIGER

@<TRIPOS>ATOM
      1 O           5.5540    0.1288    0.0000 O.3     1  UNL1       -0.3870
      2 O           7.9506   -2.6687    0.0000 O.2     1  UNL1       -0.2967
      3 O           2.5357   -2.6896    0.0000 O.3     1  UNL1       -0.3912
      4 C           7.9288   -0.6372    0.0000 C.3     1  UNL1       -0.0142
      5 C           7.0628   -1.1372    0.0000 C.3     1  UNL1        0.0609
      6 C           7.9288    0.3628    0.0000 C.3     1  UNL1       -0.0307
      7 C           6.1968   -0.6372    0.0000 C.3     1  UNL1        0.0842
      8 C           8.8228    0.8974    0.0000 C.3     1  UNL1       -0.0258
      9 C           5.2868   -1.1441    0.0000 C.3     1  UNL1        0.0015
     10 C           9.7288    0.3836    0.0000 C.3     1  UNL1       -0.0284
     11 C           5.2787   -2.1857    0.0000 C.3     1  UNL1       -0.0188
     12 C           8.8228   -1.1719    0.0000 C.3     1  UNL1       -0.0459
     13 C           7.0628    0.8628    0.0000 C.3     1  UNL1       -0.0468
     14 C           6.1968    0.3628    0.0000 C.3     1  UNL1       -0.0223
     15 C           9.7288   -0.6581    0.0000 C.3     1  UNL1       -0.0468
     16 C           9.0329    1.9113    0.0000 C.3     1  UNL1       -0.0168
     17 C           7.0789   -2.1788    0.0000 C.2     1  UNL1        0.1428
     18 C           6.1808   -2.7065    0.0000 C.3     1  UNL1        0.0105
     19 C           4.3433   -2.7354    0.0000 C.3     1  UNL1       -0.0051
     20 C          10.4911    1.0843    0.0000 C.3     1  UNL1       -0.0468
     21 C           4.3599   -0.5800    0.0000 C.3     1  UNL1       -0.0423
     22 C           8.2709   -1.5769    0.0000 C.3     1  UNL1       -0.0583
     23 C           7.7056   -1.9033    0.0000 C.3     1  UNL1       -0.0496
     24 C          10.0619    2.0266    0.0000 C.3     1  UNL1       -0.0457
     25 C           4.9520   -0.2018    0.0000 C.3     1  UNL1       -0.0566
     26 C           3.4037   -2.1929    0.0000 C.3     1  UNL1        0.0607
     27 C          10.5987   -0.1097    0.0000 C.3     1  UNL1       -0.0593
     28 C           3.4120   -1.1080    0.0000 C.3     1  UNL1       -0.0257
     29 C           8.3593    2.6505    0.0000 C.2     1  UNL1       -0.0763
     30 C           3.8467   -3.6034    0.0000 C.3     1  UNL1       -0.0572
     31 C           4.8466   -3.5995    0.0000 C.3     1  UNL1       -0.0572
     32 C           8.6626    3.6034    0.0000 C.3     1  UNL1       -0.0438
     33 C           7.3824    2.4367    0.0000 C.2     1  UNL1       -0.0994
     34 H           7.9223    1.2127    0.0000 H       1  UNL1        0.0309
     35 H           8.1300    1.3900    0.0000 H       1  UNL1        0.0315
     36 H           5.2820   -3.0357    0.0000 H       1  UNL1        0.0317
     37 H           8.4182   -1.6417    0.0000 H       1  UNL1        0.0271
     38 H           9.2164   -1.6509    0.0000 H       1  UNL1        0.0271
     39 H           7.4613    1.3377    0.0000 H       1  UNL1        0.0269
     40 H           6.6643    1.3377    0.0000 H       1  UNL1        0.0269
     41 H           5.9847    0.9454    0.0000 H       1  UNL1        0.0293
     42 H           5.5862    0.2551    0.0000 H       1  UNL1        0.0293
     43 H           9.9379   -1.2418    0.0000 H       1  UNL1        0.0271
     44 H          10.3397   -0.5520    0.0000 H       1  UNL1        0.0271
     45 H           9.2513    2.4916    0.0000 H       1  UNL1        0.0348
     46 H           5.7835   -3.1825    0.0000 H       1  UNL1        0.0345
     47 H           6.5818   -3.1794    0.0000 H       1  UNL1        0.0345
     48 H          10.8604    0.5863    0.0000 H       1  UNL1        0.0271
     49 H          11.0252    1.3992    0.0000 H       1  UNL1        0.0271
     50 H           4.7681   -0.1134    0.0000 H       1  UNL1        0.0272
     51 H           3.9700   -0.0980    0.0000 H       1  UNL1        0.0272
     52 H           7.6884   -1.7890    0.0000 H       1  UNL1        0.0235
     53 H           8.4830   -2.1595    0.0000 H       1  UNL1        0.0235
     54 H           8.8535   -1.3648    0.0000 H       1  UNL1        0.0235
     55 H           7.2306   -2.3018    0.0000 H       1  UNL1        0.0240
     56 H           8.1041   -2.3782    0.0000 H       1  UNL1        0.0240
     57 H           8.1805   -1.5048    0.0000 H       1  UNL1        0.0240
     58 H          10.6500    2.2229    0.0000 H       1  UNL1        0.0271
     59 H           9.9285    2.6321    0.0000 H       1  UNL1        0.0271
     60 H           5.5362    0.0058    0.0000 H       1  UNL1        0.0236
     61 H           4.7444    0.3824    0.0000 H       1  UNL1        0.0236
     62 H           4.3678   -0.4093    0.0000 H       1  UNL1        0.0236
     63 H           3.4025   -2.8129    0.0000 H       1  UNL1        0.0599
     64 H           3.2075   -0.5227    0.0000 H       1  UNL1        0.0290
     65 H           2.8004   -1.2093    0.0000 H       1  UNL1        0.0290
     66 H          10.2928   -0.6490    0.0000 H       1  UNL1        0.0235
     67 H          11.1380   -0.4156    0.0000 H       1  UNL1        0.0235
     68 H          10.9045    0.4296    0.0000 H       1  UNL1        0.0235
     69 H           5.4463    0.7394    0.0000 H       1  UNL1        0.2102
     70 H           4.3109   -3.9116    0.0000 H       1  UNL1        0.0236
     71 H           5.1587   -4.1352    0.0000 H       1  UNL1        0.0236
     72 H           5.3824   -3.2874    0.0000 H       1  UNL1        0.0236
     73 H           3.3085   -3.2954    0.0000 H       1  UNL1        0.0236
     74 H           3.5387   -4.1415    0.0000 H       1  UNL1        0.0236
     75 H           4.3848   -3.9113    0.0000 H       1  UNL1        0.0236
     76 H           2.0000   -2.3775    0.0000 H       1  UNL1        0.2098
     77 H           9.2534    3.4153    0.0000 H       1  UNL1        0.0274
     78 H           8.8507    4.1941    0.0000 H       1  UNL1        0.0274
     79 H           8.0718    3.7914    0.0000 H       1  UNL1        0.0274
     80 H           6.9648    2.8950    0.0000 H       1  UNL1        0.0534
     81 H           7.1944    1.8459    0.0000 H       1  UNL1        0.0534
@<TRIPOS>BOND
     1     7     1    1
     2     1    69    1
     3     2    17    2
     4    26     3    1
     5     3    76    1
     6     4     5    1
     7     4     6    1
     8     4    12    1
     9     4    22    1
    10     5     7    1
    11     5    17    1
    12     5    23    1
    13     6     8    1
    14     6    13    1
    15     6    34    1
    16     7     9    1
    17     7    14    1
    18     8    10    1
    19     8    16    1
    20     8    35    1
    21     9    11    1
    22     9    21    1
    23     9    25    1
    24    10    15    1
    25    10    20    1
    26    10    27    1
    27    11    18    1
    28    11    19    1
    29    11    36    1
    30    12    15    1
    31    12    37    1
    32    12    38    1
    33    13    14    1
    34    13    39    1
    35    13    40    1
    36    14    41    1
    37    14    42    1
    38    15    43    1
    39    15    44    1
    40    16    24    1
    41    16    29    1
    42    16    45    1
    43    17    18    1
    44    18    46    1
    45    18    47    1
    46    19    26    1
    47    19    30    1
    48    19    31    1
    49    20    24    1
    50    20    48    1
    51    20    49    1
    52    21    28    1
    53    21    50    1
    54    21    51    1
    55    22    52    1
    56    22    53    1
    57    22    54    1
    58    23    55    1
    59    23    56    1
    60    23    57    1
    61    24    58    1
    62    24    59    1
    63    25    60    1
    64    25    61    1
    65    25    62    1
    66    26    28    1
    67    26    63    1
    68    27    66    1
    69    27    67    1
    70    27    68    1
    71    28    64    1
    72    28    65    1
    73    29    32    1
    74    29    33    2
    75    30    73    1
    76    30    74    1
    77    30    75    1
    78    31    70    1
    79    31    71    1
    80    31    72    1
    81    32    77    1
    82    32    78    1
    83    32    79    1
    84    33    80    1
    85    33    81    1
