@<TRIPOS>MOLECULE
IMPHY006549
 47 49 0 0 0
SMALL
GASTEIGER

@<TRIPOS>ATOM
      1 O           6.3301    0.0000    0.0000 O.2     1  UNL1       -0.4837
      2 O           6.3301    3.0000    0.0000 O.2     1  UNL1       -0.2924
      3 O           2.0000    0.5000    0.0000 O.3     1  UNL1       -0.4914
      4 O           2.0000   -1.5000    0.0000 O.3     1  UNL1       -0.5033
      5 O          10.6603   -2.5000    0.0000 O.3     1  UNL1       -0.4914
      6 O          12.3923   -1.5000    0.0000 O.3     1  UNL1       -0.5033
      7 C           5.4641    0.5000    0.0000 C.3     1  UNL1        0.1322
      8 C           5.4641    1.5000    0.0000 C.3     1  UNL1        0.0513
      9 C           4.5981    0.0000    0.0000 C.ar    1  UNL1       -0.0033
     10 C           6.3301    2.0000    0.0000 C.2     1  UNL1        0.1634
     11 C           7.1962    0.5000    0.0000 C.2     1  UNL1        0.1247
     12 C           3.7320    0.5000    0.0000 C.ar    1  UNL1       -0.0096
     13 C           7.1962    1.5000    0.0000 C.2     1  UNL1        0.0227
     14 C           4.5981   -1.0000    0.0000 C.ar    1  UNL1       -0.0514
     15 C           2.8660    0.0000    0.0000 C.ar    1  UNL1        0.1616
     16 C           3.7320   -1.5000    0.0000 C.ar    1  UNL1       -0.0161
     17 C           8.0622    0.0000    0.0000 C.2     1  UNL1       -0.0192
     18 C           2.8660   -1.0000    0.0000 C.ar    1  UNL1        0.1585
     19 C           8.9282    0.5000    0.0000 C.2     1  UNL1       -0.0510
     20 C           9.7942    0.0000    0.0000 C.ar    1  UNL1       -0.0212
     21 C           9.7942   -1.0000    0.0000 C.ar    1  UNL1       -0.0092
     22 C          10.6603    0.5000    0.0000 C.ar    1  UNL1       -0.0509
     23 C          10.6603   -1.5000    0.0000 C.ar    1  UNL1        0.1618
     24 C          11.5263    0.0000    0.0000 C.ar    1  UNL1       -0.0160
     25 C          11.5263   -1.0000    0.0000 C.ar    1  UNL1        0.1585
     26 C           2.0000    1.5000    0.0000 C.3     1  UNL1        0.0790
     27 C          11.5263   -3.0000    0.0000 C.3     1  UNL1        0.0790
     28 H           5.4641   -0.1200    0.0000 H       1  UNL1        0.0789
     29 H           5.2520    2.0826    0.0000 H       1  UNL1        0.0385
     30 H           4.8535    1.3923    0.0000 H       1  UNL1        0.0385
     31 H           3.7320    1.1200    0.0000 H       1  UNL1        0.0659
     32 H           7.7331    1.8100    0.0000 H       1  UNL1        0.0689
     33 H           5.1350   -1.3100    0.0000 H       1  UNL1        0.0623
     34 H           3.7320   -2.1200    0.0000 H       1  UNL1        0.0655
     35 H           8.0622   -0.6200    0.0000 H       1  UNL1        0.0654
     36 H           8.9282    1.1200    0.0000 H       1  UNL1        0.0625
     37 H           9.2573   -1.3100    0.0000 H       1  UNL1        0.0661
     38 H          10.6603    1.1200    0.0000 H       1  UNL1        0.0625
     39 H          12.0632    0.3100    0.0000 H       1  UNL1        0.0655
     40 H           2.0000   -2.1200    0.0000 H       1  UNL1        0.2923
     41 H           2.6200    1.5000    0.0000 H       1  UNL1        0.0660
     42 H           2.0000    2.1200    0.0000 H       1  UNL1        0.0660
     43 H           1.3800    1.5000    0.0000 H       1  UNL1        0.0660
     44 H          12.9292   -1.1900    0.0000 H       1  UNL1        0.2923
     45 H          11.2163   -3.5369    0.0000 H       1  UNL1        0.0660
     46 H          12.0632   -3.3100    0.0000 H       1  UNL1        0.0660
     47 H          11.8363   -2.4631    0.0000 H       1  UNL1        0.0660
@<TRIPOS>BOND
     1     1     7    1
     2     1    11    1
     3     2    10    2
     4     3    15    1
     5     3    26    1
     6     4    18    1
     7     4    40    1
     8     5    23    1
     9     5    27    1
    10     6    25    1
    11     6    44    1
    12     7     8    1
    13     7     9    1
    14     7    28    1
    15     8    10    1
    16     8    29    1
    17     8    30    1
    18     9    12   ar
    19     9    14   ar
    20    10    13    1
    21    11    13    2
    22    11    17    1
    23    12    15   ar
    24    12    31    1
    25    13    32    1
    26    14    16   ar
    27    14    33    1
    28    15    18   ar
    29    16    18   ar
    30    16    34    1
    31    17    19    2
    32    17    35    1
    33    19    20    1
    34    19    36    1
    35    20    21   ar
    36    20    22   ar
    37    21    23   ar
    38    21    37    1
    39    22    24   ar
    40    22    38    1
    41    23    25   ar
    42    24    25   ar
    43    24    39    1
    44    26    41    1
    45    26    42    1
    46    26    43    1
    47    27    45    1
    48    27    46    1
    49    27    47    1
