@<TRIPOS>MOLECULE
IMPHY015556
 44 45 0 0 0
SMALL
GASTEIGER

@<TRIPOS>ATOM
      1 O           3.0723   -0.2583    0.0000 O.3     1  UNL1       -0.4604
      2 O           4.5723    0.6078    0.0000 O.2     1  UNL1       -0.2508
      3 C           5.4490   -3.0640    0.0000 C.3     1  UNL1       -0.0185
      4 C           4.3089   -2.1069    0.0000 C.3     1  UNL1        0.0060
      5 C           4.0501   -3.0728    0.0000 C.3     1  UNL1        0.0228
      6 C           3.5723   -1.1243    0.0000 C.3     1  UNL1        0.1136
      7 C           2.2756   -2.4180    0.0000 C.3     1  UNL1       -0.0278
      8 C           2.8290   -3.9385    0.0000 C.2     1  UNL1       -0.0694
      9 C           5.9490   -3.9300    0.0000 C.3     1  UNL1       -0.0588
     10 C           6.3150   -2.5640    0.0000 C.3     1  UNL1       -0.0588
     11 C           2.0000   -3.3793    0.0000 C.2     1  UNL1       -0.0842
     12 C           2.8639   -4.9379    0.0000 C.3     1  UNL1       -0.0434
     13 C           3.5723    0.6078    0.0000 C.2     1  UNL1        0.3074
     14 C           3.0723    1.4738    0.0000 C.3     1  UNL1        0.0449
     15 C           3.5723    2.3398    0.0000 C.3     1  UNL1       -0.0430
     16 C           3.0723    3.2058    0.0000 C.3     1  UNL1       -0.0528
     17 C           3.5723    4.0719    0.0000 C.3     1  UNL1       -0.0559
     18 C           3.0723    4.9379    0.0000 C.3     1  UNL1       -0.0653
     19 H           4.7592   -1.6807    0.0000 H       1  UNL1        0.0345
     20 H           4.2401   -3.6630    0.0000 H       1  UNL1        0.0387
     21 H           4.0897   -0.7827    0.0000 H       1  UNL1        0.0743
     22 H           2.2706   -1.7981    0.0000 H       1  UNL1        0.0311
     23 H           1.6613   -2.3342    0.0000 H       1  UNL1        0.0311
     24 H           5.4121   -4.2400    0.0000 H       1  UNL1        0.0235
     25 H           6.2590   -4.4670    0.0000 H       1  UNL1        0.0235
     26 H           6.4859   -3.6200    0.0000 H       1  UNL1        0.0235
     27 H           6.6250   -3.1010    0.0000 H       1  UNL1        0.0235
     28 H           6.8520   -2.2540    0.0000 H       1  UNL1        0.0235
     29 H           6.0050   -2.0271    0.0000 H       1  UNL1        0.0235
     30 H           1.4174   -3.5914    0.0000 H       1  UNL1        0.0572
     31 H           2.2443   -4.9595    0.0000 H       1  UNL1        0.0274
     32 H           2.8856   -5.5575    0.0000 H       1  UNL1        0.0274
     33 H           3.4836   -4.9162    0.0000 H       1  UNL1        0.0274
     34 H           2.5973    1.8723    0.0000 H       1  UNL1        0.0377
     35 H           2.5973    1.0753    0.0000 H       1  UNL1        0.0377
     36 H           4.0472    1.9413    0.0000 H       1  UNL1        0.0270
     37 H           4.0472    2.7383    0.0000 H       1  UNL1        0.0270
     38 H           2.5973    3.6044    0.0000 H       1  UNL1        0.0265
     39 H           2.5973    2.8073    0.0000 H       1  UNL1        0.0265
     40 H           4.0472    3.6733    0.0000 H       1  UNL1        0.0263
     41 H           4.0472    4.4704    0.0000 H       1  UNL1        0.0263
     42 H           3.6092    5.2479    0.0000 H       1  UNL1        0.0230
     43 H           2.7623    5.4748    0.0000 H       1  UNL1        0.0230
     44 H           2.5353    4.6279    0.0000 H       1  UNL1        0.0230
@<TRIPOS>BOND
     1     1     6    1
     2     1    13    1
     3     2    13    2
     4     3     4    1
     5     3     5    1
     6     3     9    1
     7     3    10    1
     8     4     6    1
     9     4     7    1
    10     4    19    1
    11     5     6    1
    12     5     8    1
    13     5    20    1
    14     6    21    1
    15     7    11    1
    16     7    22    1
    17     7    23    1
    18     8    11    2
    19     8    12    1
    20     9    24    1
    21     9    25    1
    22     9    26    1
    23    10    27    1
    24    10    28    1
    25    10    29    1
    26    11    30    1
    27    12    31    1
    28    12    32    1
    29    12    33    1
    30    13    14    1
    31    14    15    1
    32    14    34    1
    33    14    35    1
    34    15    16    1
    35    15    36    1
    36    15    37    1
    37    16    17    1
    38    16    38    1
    39    16    39    1
    40    17    18    1
    41    17    40    1
    42    17    41    1
    43    18    42    1
    44    18    43    1
    45    18    44    1
