@<TRIPOS>MOLECULE
IMPHY016242
 19 19 0 0 0
SMALL
GASTEIGER

@<TRIPOS>ATOM
      1 O           2.5369   -0.5600    0.0000 O.3     1  UNL1       -0.3904
      2 O           6.0010    1.4400    0.0000 O.3     1  UNL1       -0.4771
      3 O           4.2690    1.4400    0.0000 O.2     1  UNL1       -0.2451
      4 C           4.2690   -0.5600    0.0000 C.ar    1  UNL1       -0.0082
      5 C           5.1350   -0.0600    0.0000 C.ar    1  UNL1        0.0642
      6 C           3.4030   -0.0600    0.0000 C.3     1  UNL1        0.0700
      7 C           4.2690   -1.5600    0.0000 C.ar    1  UNL1       -0.0556
      8 C           6.0010   -0.5600    0.0000 C.ar    1  UNL1       -0.0474
      9 C           5.1350   -2.0600    0.0000 C.ar    1  UNL1       -0.0614
     10 C           6.0010   -1.5600    0.0000 C.ar    1  UNL1       -0.0610
     11 C           5.1350    0.9400    0.0000 C.2     1  UNL1        0.3371
     12 H           3.8015    0.4149    0.0000 H       1  UNL1        0.0607
     13 H           3.0044    0.4149    0.0000 H       1  UNL1        0.0607
     14 H           3.7320   -1.8700    0.0000 H       1  UNL1        0.0621
     15 H           6.5380   -0.2500    0.0000 H       1  UNL1        0.0626
     16 H           5.1350   -2.6800    0.0000 H       1  UNL1        0.0618
     17 H           6.5380   -1.8700    0.0000 H       1  UNL1        0.0618
     18 H           2.0000   -0.2500    0.0000 H       1  UNL1        0.2098
     19 H           6.0010    2.0600    0.0000 H       1  UNL1        0.2954
@<TRIPOS>BOND
     1     1     6    1
     2     1    18    1
     3     2    11    1
     4     2    19    1
     5     3    11    2
     6     4     5   ar
     7     4     6    1
     8     4     7   ar
     9     5     8   ar
    10     5    11    1
    11     6    12    1
    12     6    13    1
    13     7     9   ar
    14     7    14    1
    15     8    10   ar
    16     8    15    1
    17     9    10   ar
    18     9    16    1
    19    10    17    1
