@<TRIPOS>MOLECULE
IMPHY013125
 120 126 0 0 0
SMALL
GASTEIGER

@<TRIPOS>ATOM
      1 O           8.5991   -0.9100    0.0000 O.3     1  UNL1       -0.3448
      2 O          10.4202   -2.6808    0.0000 O.3     1  UNL1       -0.3944
      3 O          17.5122    2.2109    0.0000 O.3     1  UNL1       -0.4802
      4 O          16.6636    0.7010    0.0000 O.2     1  UNL1       -0.2504
      5 O           7.7331    0.5900    0.0000 O.3     1  UNL1       -0.3461
      6 O           6.8671   -1.9100    0.0000 O.3     1  UNL1       -0.3378
      7 O           5.1350   -0.9100    0.0000 O.3     1  UNL1       -0.3864
      8 O           5.1350    1.0900    0.0000 O.3     1  UNL1       -0.3869
      9 O           5.1350   -1.9100    0.0000 O.3     1  UNL1       -0.3405
     10 O           6.8671   -3.9100    0.0000 O.3     1  UNL1       -0.3841
     11 O           5.1350   -4.9100    0.0000 O.3     1  UNL1       -0.3864
     12 O           3.4030   -3.9100    0.0000 O.3     1  UNL1       -0.3865
     13 O           2.5369   -2.4100    0.0000 O.3     1  UNL1       -0.3924
     14 C          13.1202    0.6598    0.0000 C.3     1  UNL1       -0.0194
     15 C          12.2522    1.1565    0.0000 C.3     1  UNL1       -0.0257
     16 C          11.3442    0.6461    0.0000 C.3     1  UNL1       -0.0249
     17 C          13.9842    1.1631    0.0000 C.3     1  UNL1       -0.0051
     18 C          11.3402   -0.3955    0.0000 C.3     1  UNL1       -0.0255
     19 C          13.1402   -0.3816    0.0000 C.3     1  UNL1       -0.0463
     20 C          10.4069   -0.9488    0.0000 C.3     1  UNL1        0.0206
     21 C          12.2442   -0.9128    0.0000 C.3     1  UNL1       -0.0485
     22 C          13.9804    2.1631    0.0000 C.2     1  UNL1       -0.0629
     23 C          10.4152    1.2066    0.0000 C.3     1  UNL1       -0.0447
     24 C          12.2484    2.1564    0.0000 C.3     1  UNL1       -0.0306
     25 C          14.8723    2.7012    0.0000 C.3     1  UNL1       -0.0031
     26 C          14.8802    0.6319    0.0000 C.3     1  UNL1       -0.0424
     27 C          15.7803    2.1909    0.0000 C.3     1  UNL1        0.0741
     28 C           9.4651   -0.4100    0.0000 C.3     1  UNL1        0.0695
     29 C          13.7659   -0.1038    0.0000 C.3     1  UNL1       -0.0585
     30 C          15.7843    1.1493    0.0000 C.3     1  UNL1       -0.0359
     31 C          11.3480    1.6461    0.0000 C.3     1  UNL1       -0.0590
     32 C           9.4693    0.6750    0.0000 C.3     1  UNL1       -0.0254
     33 C          13.1124    2.6598    0.0000 C.2     1  UNL1       -0.0836
     34 C          14.3299    0.2248    0.0000 C.3     1  UNL1       -0.0553
     35 C          14.8430    3.7858    0.0000 C.3     1  UNL1       -0.0403
     36 C          16.7220    2.7298    0.0000 C.3     1  UNL1       -0.0362
     37 C          15.7720    4.3463    0.0000 C.3     1  UNL1       -0.0343
     38 C          10.9135   -1.8110    0.0000 C.3     1  UNL1        0.0522
     39 C           9.9136   -1.8187    0.0000 C.3     1  UNL1       -0.0548
     40 C          16.7178    3.8147    0.0000 C.3     1  UNL1       -0.0468
     41 C          16.6521    1.7009    0.0000 C.2     1  UNL1        0.3115
     42 C          16.2586    5.2200    0.0000 C.3     1  UNL1       -0.0598
     43 C          15.2587    5.2046    0.0000 C.3     1  UNL1       -0.0598
     44 C           7.7331   -0.4100    0.0000 C.3     1  UNL1        0.1882
     45 C           6.8671   -0.9100    0.0000 C.3     1  UNL1        0.1406
     46 C           6.0010   -0.4100    0.0000 C.3     1  UNL1        0.1141
     47 C           6.8671    1.0900    0.0000 C.3     1  UNL1        0.0792
     48 C           6.0010    0.5900    0.0000 C.3     1  UNL1        0.1069
     49 C           6.0010   -2.4100    0.0000 C.3     1  UNL1        0.1885
     50 C           6.0010   -3.4100    0.0000 C.3     1  UNL1        0.1341
     51 C           5.1350   -3.9100    0.0000 C.3     1  UNL1        0.1141
     52 C           4.2690   -2.4100    0.0000 C.3     1  UNL1        0.1130
     53 C           4.2690   -3.4100    0.0000 C.3     1  UNL1        0.1119
     54 C           3.4030   -1.9100    0.0000 C.3     1  UNL1        0.0730
     55 H          12.9867    1.5843    0.0000 H       1  UNL1        0.0315
     56 H          11.3467   -1.2455    0.0000 H       1  UNL1        0.0313
     57 H          13.3605   -0.9612    0.0000 H       1  UNL1        0.0271
     58 H          13.7489   -0.2638    0.0000 H       1  UNL1        0.0271
     59 H          11.8488   -1.3904    0.0000 H       1  UNL1        0.0268
     60 H          12.6470   -1.3842    0.0000 H       1  UNL1        0.0268
     61 H          10.8216    1.6748    0.0000 H       1  UNL1        0.0271
     62 H          10.0234    1.6872    0.0000 H       1  UNL1        0.0271
     63 H          12.0341    2.7382    0.0000 H       1  UNL1        0.0310
     64 H          11.6382    2.0464    0.0000 H       1  UNL1        0.0310
     65 H          15.6001    3.1403    0.0000 H       1  UNL1        0.0357
     66 H          14.4775    0.1606    0.0000 H       1  UNL1        0.0274
     67 H          15.2757    0.1544    0.0000 H       1  UNL1        0.0274
     68 H           9.4663   -1.0300    0.0000 H       1  UNL1        0.0603
     69 H          13.2925   -0.5041    0.0000 H       1  UNL1        0.0235
     70 H          14.1662   -0.5772    0.0000 H       1  UNL1        0.0235
     71 H          14.2393    0.2966    0.0000 H       1  UNL1        0.0235
     72 H          15.9956    0.5664    0.0000 H       1  UNL1        0.0276
     73 H          16.3948    1.2577    0.0000 H       1  UNL1        0.0276
     74 H          11.9680    1.6437    0.0000 H       1  UNL1        0.0235
     75 H          11.3504    2.2661    0.0000 H       1  UNL1        0.0235
     76 H          10.7280    1.6485    0.0000 H       1  UNL1        0.0235
     77 H           9.2625    1.2595    0.0000 H       1  UNL1        0.0290
     78 H           8.8581    0.5713    0.0000 H       1  UNL1        0.0290
     79 H          13.1101    3.2798    0.0000 H       1  UNL1        0.0572
     80 H          13.7481    0.0105    0.0000 H       1  UNL1        0.0238
     81 H          14.5442   -0.3570    0.0000 H       1  UNL1        0.0238
     82 H          14.9117    0.4391    0.0000 H       1  UNL1        0.0238
     83 H          14.6183    4.3637    0.0000 H       1  UNL1        0.0276
     84 H          14.2352    3.6633    0.0000 H       1  UNL1        0.0276
     85 H          16.9333    2.1469    0.0000 H       1  UNL1        0.0276
     86 H          17.3325    2.8382    0.0000 H       1  UNL1        0.0276
     87 H          11.3915   -2.2058    0.0000 H       1  UNL1        0.0563
     88 H          11.3854   -1.4088    0.0000 H       1  UNL1        0.0563
     89 H           9.3742   -1.5128    0.0000 H       1  UNL1        0.0237
     90 H           9.6077   -2.3580    0.0000 H       1  UNL1        0.0237
     91 H          10.4529   -2.1245    0.0000 H       1  UNL1        0.0237
     92 H          17.3291    3.7110    0.0000 H       1  UNL1        0.0271
     93 H          16.9246    4.3992    0.0000 H       1  UNL1        0.0271
     94 H          16.8002    4.9183    0.0000 H       1  UNL1        0.0235
     95 H          16.5603    5.7616    0.0000 H       1  UNL1        0.0235
     96 H          15.7169    5.5216    0.0000 H       1  UNL1        0.0235
     97 H          15.7908    5.5228    0.0000 H       1  UNL1        0.0235
     98 H          14.9405    5.7366    0.0000 H       1  UNL1        0.0235
     99 H          14.7266    4.8863    0.0000 H       1  UNL1        0.0235
    100 H           7.7331   -1.0300    0.0000 H       1  UNL1        0.0937
    101 H          10.7343   -3.2154    0.0000 H       1  UNL1        0.2094
    102 H          18.0527    1.9071    0.0000 H       1  UNL1        0.2951
    103 H           6.3301   -1.2200    0.0000 H       1  UNL1        0.0675
    104 H           5.4641   -0.1000    0.0000 H       1  UNL1        0.0648
    105 H           7.2656    1.5650    0.0000 H       1  UNL1        0.0587
    106 H           6.4685    1.5650    0.0000 H       1  UNL1        0.0587
    107 H           6.0010    1.2100    0.0000 H       1  UNL1        0.0643
    108 H           6.0010   -1.7900    0.0000 H       1  UNL1        0.0938
    109 H           4.5981   -0.6000    0.0000 H       1  UNL1        0.2100
    110 H           5.1350    1.7100    0.0000 H       1  UNL1        0.2100
    111 H           6.0010   -4.0300    0.0000 H       1  UNL1        0.0671
    112 H           4.5981   -4.2200    0.0000 H       1  UNL1        0.0648
    113 H           4.2690   -1.7900    0.0000 H       1  UNL1        0.0647
    114 H           4.2690   -4.0300    0.0000 H       1  UNL1        0.0647
    115 H           7.4040   -3.6000    0.0000 H       1  UNL1        0.2101
    116 H           3.8015   -1.4350    0.0000 H       1  UNL1        0.0584
    117 H           3.0044   -1.4350    0.0000 H       1  UNL1        0.0584
    118 H           5.6720   -5.2200    0.0000 H       1  UNL1        0.2100
    119 H           3.4030   -4.5300    0.0000 H       1  UNL1        0.2100
    120 H           2.0000   -2.1000    0.0000 H       1  UNL1        0.2095
@<TRIPOS>BOND
     1    28     1    1
     2    44     1    1
     3     2    38    1
     4     2   101    1
     5     3    41    1
     6     3   102    1
     7     4    41    2
     8     5    44    1
     9     5    47    1
    10    45     6    1
    11    49     6    1
    12    46     7    1
    13     7   109    1
    14    48     8    1
    15     8   110    1
    16     9    49    1
    17     9    52    1
    18    50    10    1
    19    10   115    1
    20    51    11    1
    21    11   118    1
    22    53    12    1
    23    12   119    1
    24    13    54    1
    25    13   120    1
    26    14    15    1
    27    14    17    1
    28    14    19    1
    29    14    29    1
    30    15    16    1
    31    15    24    1
    32    15    55    1
    33    16    18    1
    34    16    23    1
    35    16    31    1
    36    17    22    1
    37    17    26    1
    38    17    34    1
    39    18    20    1
    40    18    21    1
    41    18    56    1
    42    19    21    1
    43    19    57    1
    44    19    58    1
    45    20    28    1
    46    20    38    1
    47    20    39    1
    48    21    59    1
    49    21    60    1
    50    22    25    1
    51    22    33    2
    52    23    32    1
    53    23    61    1
    54    23    62    1
    55    24    33    1
    56    24    63    1
    57    24    64    1
    58    25    27    1
    59    25    35    1
    60    25    65    1
    61    26    30    1
    62    26    66    1
    63    26    67    1
    64    27    30    1
    65    27    36    1
    66    27    41    1
    67    28    32    1
    68    28    68    1
    69    29    69    1
    70    29    70    1
    71    29    71    1
    72    30    72    1
    73    30    73    1
    74    31    74    1
    75    31    75    1
    76    31    76    1
    77    32    77    1
    78    32    78    1
    79    33    79    1
    80    34    80    1
    81    34    81    1
    82    34    82    1
    83    35    37    1
    84    35    83    1
    85    35    84    1
    86    36    40    1
    87    36    85    1
    88    36    86    1
    89    37    40    1
    90    37    42    1
    91    37    43    1
    92    38    87    1
    93    38    88    1
    94    39    89    1
    95    39    90    1
    96    39    91    1
    97    40    92    1
    98    40    93    1
    99    42    94    1
   100    42    95    1
   101    42    96    1
   102    43    97    1
   103    43    98    1
   104    43    99    1
   105    44    45    1
   106    44   100    1
   107    45    46    1
   108    45   103    1
   109    46    48    1
   110    46   104    1
   111    47    48    1
   112    47   105    1
   113    47   106    1
   114    48   107    1
   115    49    50    1
   116    49   108    1
   117    50    51    1
   118    50   111    1
   119    51    53    1
   120    51   112    1
   121    52    53    1
   122    52    54    1
   123    52   113    1
   124    53   114    1
   125    54   116    1
   126    54   117    1
