@<TRIPOS>MOLECULE
IMPHY010235
 44 45 0 0 0
SMALL
GASTEIGER

@<TRIPOS>ATOM
      1 O           2.3100   -0.4532    0.0000 O.3     1  UNL1       -0.3886
      2 C           5.0420   -0.4532    0.0000 C.3     1  UNL1       -0.0236
      3 C           5.0420    0.5468    0.0000 C.3     1  UNL1       -0.0301
      4 C           5.9360    1.0815    0.0000 C.3     1  UNL1       -0.0315
      5 C           4.1760   -0.9532    0.0000 C.3     1  UNL1       -0.0096
      6 C           5.9360   -0.9879    0.0000 C.3     1  UNL1       -0.0470
      7 C           4.1760    1.0468    0.0000 C.3     1  UNL1       -0.0466
      8 C           3.3100   -0.4532    0.0000 C.3     1  UNL1        0.0664
      9 C           6.8421    0.5676    0.0000 C.3     1  UNL1       -0.0476
     10 C           3.3100    0.5468    0.0000 C.3     1  UNL1       -0.0237
     11 C           6.8421   -0.4740    0.0000 C.3     1  UNL1       -0.0521
     12 C           5.0420   -1.4532    0.0000 C.3     1  UNL1       -0.0590
     13 C           6.4260    1.9532    0.0000 C.3     1  UNL1       -0.0595
     14 C           5.4260    1.9416    0.0000 C.3     1  UNL1       -0.0595
     15 C           4.1760   -1.9532    0.0000 C.3     1  UNL1       -0.0593
     16 C           2.8100   -1.3192    0.0000 C.3     1  UNL1       -0.0358
     17 H           5.0373    1.1668    0.0000 H       1  UNL1        0.0311
     18 H           3.6391   -1.2632    0.0000 H       1  UNL1        0.0331
     19 H           5.5314   -1.4576    0.0000 H       1  UNL1        0.0271
     20 H           6.3296   -1.4669    0.0000 H       1  UNL1        0.0271
     21 H           4.5746    1.5217    0.0000 H       1  UNL1        0.0269
     22 H           3.7775    1.5217    0.0000 H       1  UNL1        0.0269
     23 H           7.4529    0.4615    0.0000 H       1  UNL1        0.0271
     24 H           7.0511    1.1513    0.0000 H       1  UNL1        0.0271
     25 H           3.0980    1.1294    0.0000 H       1  UNL1        0.0293
     26 H           2.6994    0.4391    0.0000 H       1  UNL1        0.0293
     27 H           7.0511   -1.0577    0.0000 H       1  UNL1        0.0266
     28 H           7.4529   -0.3679    0.0000 H       1  UNL1        0.0266
     29 H           4.4220   -1.4532    0.0000 H       1  UNL1        0.0235
     30 H           5.0420   -2.0732    0.0000 H       1  UNL1        0.0235
     31 H           5.6620   -1.4532    0.0000 H       1  UNL1        0.0235
     32 H           6.9664    1.6494    0.0000 H       1  UNL1        0.0235
     33 H           6.7297    2.4937    0.0000 H       1  UNL1        0.0235
     34 H           5.8855    2.2570    0.0000 H       1  UNL1        0.0235
     35 H           5.9593    2.2578    0.0000 H       1  UNL1        0.0235
     36 H           5.1098    2.4750    0.0000 H       1  UNL1        0.0235
     37 H           4.8927    1.6254    0.0000 H       1  UNL1        0.0235
     38 H           3.5560   -1.9532    0.0000 H       1  UNL1        0.0233
     39 H           4.1760   -2.5732    0.0000 H       1  UNL1        0.0233
     40 H           4.7960   -1.9532    0.0000 H       1  UNL1        0.0233
     41 H           2.2731   -1.0092    0.0000 H       1  UNL1        0.0257
     42 H           2.5000   -1.8562    0.0000 H       1  UNL1        0.0257
     43 H           3.3469   -1.6292    0.0000 H       1  UNL1        0.0257
     44 H           2.0000    0.0837    0.0000 H       1  UNL1        0.2102
@<TRIPOS>BOND
     1     1     8    1
     2     1    44    1
     3     2     3    1
     4     2     5    1
     5     2     6    1
     6     2    12    1
     7     3     4    1
     8     3     7    1
     9     3    17    1
    10     4     9    1
    11     4    13    1
    12     4    14    1
    13     5     8    1
    14     5    15    1
    15     5    18    1
    16     6    11    1
    17     6    19    1
    18     6    20    1
    19     7    10    1
    20     7    21    1
    21     7    22    1
    22     8    10    1
    23     8    16    1
    24     9    11    1
    25     9    23    1
    26     9    24    1
    27    10    25    1
    28    10    26    1
    29    11    27    1
    30    11    28    1
    31    12    29    1
    32    12    30    1
    33    12    31    1
    34    13    32    1
    35    13    33    1
    36    13    34    1
    37    14    35    1
    38    14    36    1
    39    14    37    1
    40    15    38    1
    41    15    39    1
    42    15    40    1
    43    16    41    1
    44    16    42    1
    45    16    43    1
