@<TRIPOS>MOLECULE
IMPHY005797
 43 43 0 0 0
SMALL
GASTEIGER

@<TRIPOS>ATOM
      1 O           2.5989    4.1504    0.0000 O.3     1  UNL1       -0.3884
      2 O           3.7883    0.5115    0.0000 O.3     1  UNL1       -0.3884
      3 O           4.7543    5.1164    0.0000 O.3     1  UNL1       -0.4795
      4 O           5.9790    3.8916    0.0000 O.2     1  UNL1       -0.2491
      5 O           7.1344   -0.3851    0.0000 O.3     1  UNL1       -0.4795
      6 OXT         6.6861    1.2879    0.0000 O.2     1  UNL1       -0.2491
      7 O           7.3239   -3.0240    0.0000 O.3     1  UNL1       -0.3806
      8 O           6.8062   -4.9559    0.0000 O.3     1  UNL1       -0.4788
      9 O           5.1332   -4.5076    0.0000 O.2     1  UNL1       -0.2481
     10 N           4.3060    2.4433    0.0000 N.3     1  UNL1       -0.2829
     11 N           5.2026   -0.9027    0.0000 N.3     1  UNL1       -0.3019
     12 C           4.3060    3.4433    0.0000 C.3     1  UNL1        0.1356
     13 C           3.3060    3.4433    0.0000 C.3     1  UNL1        0.0937
     14 C           3.3060    2.4433    0.0000 C.3     1  UNL1        0.0279
     15 C           5.0131    1.7362    0.0000 C.3     1  UNL1        0.0279
     16 C           4.7543    0.7703    0.0000 C.3     1  UNL1        0.0935
     17 CA          5.4614    0.0632    0.0000 C.3     1  UNL1        0.1330
     18 C           5.0131    4.1504    0.0000 C.2     1  UNL1        0.3247
     19 C           5.9097   -1.6098    0.0000 C.3     1  UNL1       -0.0004
     20 C           6.4273    0.3220    0.0000 C.2     1  UNL1        0.3245
     21 C           5.6508   -2.5758    0.0000 C.3     1  UNL1       -0.0038
     22 C           6.3580   -3.2829    0.0000 C.3     1  UNL1        0.1525
     23 C           6.0991   -4.2488    0.0000 C.2     1  UNL1        0.3337
     24 H           4.8788    3.2061    0.0000 H       1  UNL1        0.0605
     25 H           2.7332    3.2061    0.0000 H       1  UNL1        0.0627
     26 H           2.6860    2.4433    0.0000 H       1  UNL1        0.0453
     27 H           3.3060    1.8233    0.0000 H       1  UNL1        0.0453
     28 H           5.5750    1.4742    0.0000 H       1  UNL1        0.0453
     29 H           5.3687    2.2441    0.0000 H       1  UNL1        0.0453
     30 H           4.3159    1.2087    0.0000 H       1  UNL1        0.0627
     31 HA          4.8625   -0.0973    0.0000 H       1  UNL1        0.0603
     32 H           2.0000    3.9900    0.0000 H       1  UNL1        0.2099
     33 H           4.6037   -1.0632    0.0000 H       1  UNL1        0.1228
     34 H           6.4716   -1.8719    0.0000 H       1  UNL1        0.0425
     35 H           6.2653   -1.1020    0.0000 H       1  UNL1        0.0425
     36 H           3.6279   -0.0874    0.0000 H       1  UNL1        0.2099
     37 H           5.0889   -2.3137    0.0000 H       1  UNL1        0.0308
     38 H           5.2952   -3.0836    0.0000 H       1  UNL1        0.0308
     39 H           5.1927    5.5548    0.0000 H       1  UNL1        0.2951
     40 H           6.7964   -3.7213    0.0000 H       1  UNL1        0.0710
     41 H           7.7333   -0.2246    0.0000 H       1  UNL1        0.2951
     42 H           7.7623   -3.4625    0.0000 H       1  UNL1        0.2105
     43 H           6.6458   -5.5548    0.0000 H       1  UNL1        0.2951
@<TRIPOS>BOND
     1    13     1    1
     2     1    32    1
     3    16     2    1
     4     2    36    1
     5     3    18    1
     6     3    39    1
     7     4    18    2
     8     5    20    1
     9     5    41    1
    10     6    20    2
    11    22     7    1
    12     7    42    1
    13     8    23    1
    14     8    43    1
    15     9    23    2
    16    10    12    1
    17    10    14    1
    18    10    15    1
    19    17    11    1
    20    11    19    1
    21    11    33    1
    22    12    13    1
    23    12    18    1
    24    12    24    1
    25    13    14    1
    26    13    25    1
    27    14    26    1
    28    14    27    1
    29    15    16    1
    30    15    28    1
    31    15    29    1
    32    16    17    1
    33    16    30    1
    34    17    20    1
    35    17    31    1
    36    19    21    1
    37    19    34    1
    38    19    35    1
    39    21    22    1
    40    21    37    1
    41    21    38    1
    42    22    23    1
    43    22    40    1
