@<TRIPOS>MOLECULE
IMPHY008939
 136 143 0 0 0
SMALL
GASTEIGER

@<TRIPOS>ATOM
      1 O          18.6600    2.3985    0.0000 O.3     1  UNL1       -0.3850
      2 O          18.0960    2.7270    0.0000 O.3     1  UNL1       -0.3851
      3 O          17.4387   -1.0366    0.0000 O.3     1  UNL1       -0.4572
      4 O          12.9292    3.5332    0.0000 O.3     1  UNL1       -0.3477
      5 O          18.8918   -1.5417    0.0000 O.2     1  UNL1       -0.2974
      6 O          15.7067   -1.0299    0.0000 O.2     1  UNL1       -0.2450
      7 O          11.1972    3.5332    0.0000 O.3     1  UNL1       -0.3456
      8 O          11.1972    0.5332    0.0000 O.3     1  UNL1       -0.3770
      9 O           9.4651    1.5332    0.0000 O.3     1  UNL1       -0.3429
     10 O           8.5991    3.0332    0.0000 O.3     1  UNL1       -0.3456
     11 O           6.0010    1.5332    0.0000 O.3     1  UNL1       -0.3770
     12 O           6.0010    3.5332    0.0000 O.3     1  UNL1       -0.3429
     13 O           5.1350    2.0332    0.0000 O.3     1  UNL1       -0.3456
     14 O           2.5369    3.5332    0.0000 O.3     1  UNL1       -0.3770
     15 O           2.5369    1.5332    0.0000 O.3     1  UNL1       -0.3867
     16 C          18.3144    1.4601    0.0000 C.3     1  UNL1        0.1045
     17 C          18.3105    0.4601    0.0000 C.3     1  UNL1        0.0458
     18 C          17.4503    1.9634    0.0000 C.3     1  UNL1        0.1023
     19 C          16.5823    1.4668    0.0000 C.3     1  UNL1        0.0033
     20 C          17.4426   -0.0366    0.0000 C.3     1  UNL1        0.1125
     21 C          15.6743    1.9771    0.0000 C.3     1  UNL1       -0.0053
     22 C          19.2556    0.1517    0.0000 C.3     1  UNL1        0.0288
     23 C          16.5785    0.4668    0.0000 C.3     1  UNL1       -0.0087
     24 C          19.2618    1.7612    0.0000 C.3     1  UNL1       -0.0199
     25 C          19.8423    0.9542    0.0000 C.3     1  UNL1       -0.0401
     26 C          17.4704    3.0049    0.0000 C.3     1  UNL1       -0.0025
     27 C          18.3067   -0.5399    0.0000 C.3     1  UNL1       -0.0528
     28 C          15.6703    3.0187    0.0000 C.2     1  UNL1       -0.0647
     29 C          14.7453    1.4166    0.0000 C.3     1  UNL1       -0.0412
     30 C          16.5744    3.5361    0.0000 C.2     1  UNL1       -0.0813
     31 C          15.6782    0.9771    0.0000 C.3     1  UNL1       -0.0555
     32 C          14.7370    3.5721    0.0000 C.3     1  UNL1       -0.0047
     33 C          19.5626   -0.8000    0.0000 C.2     1  UNL1        0.1341
     34 C          13.7994    1.9482    0.0000 C.3     1  UNL1       -0.0254
     35 C          13.7953    3.0332    0.0000 C.3     1  UNL1        0.0654
     36 C          20.5403   -1.0100    0.0000 C.3     1  UNL1       -0.0058
     37 C          16.5708   -1.5332    0.0000 C.2     1  UNL1        0.3395
     38 C          12.0632    3.0332    0.0000 C.3     1  UNL1        0.1624
     39 C          16.5669   -2.5332    0.0000 C.ar    1  UNL1        0.0590
     40 C          12.0632    2.0332    0.0000 C.3     1  UNL1        0.0272
     41 C          11.1972    1.5332    0.0000 C.3     1  UNL1        0.0915
     42 C          15.6990   -3.0299    0.0000 C.ar    1  UNL1       -0.0478
     43 C          17.4310   -3.0365    0.0000 C.ar    1  UNL1       -0.0478
     44 C          10.3312    3.0332    0.0000 C.3     1  UNL1        0.0875
     45 C          10.3312    2.0332    0.0000 C.3     1  UNL1        0.1137
     46 C          15.6951   -4.0299    0.0000 C.ar    1  UNL1       -0.0610
     47 C          17.4272   -4.0365    0.0000 C.ar    1  UNL1       -0.0610
     48 C           9.4651    3.5332    0.0000 C.3     1  UNL1       -0.0361
     49 C          16.5592   -4.5332    0.0000 C.ar    1  UNL1       -0.0617
     50 C           8.5991    2.0332    0.0000 C.3     1  UNL1        0.1626
     51 C          12.0632    0.0332    0.0000 C.3     1  UNL1        0.0369
     52 C           7.7331    1.5332    0.0000 C.3     1  UNL1        0.0272
     53 C           6.8671    2.0332    0.0000 C.3     1  UNL1        0.0915
     54 C           7.7331    3.5332    0.0000 C.3     1  UNL1        0.0875
     55 C           6.8671    3.0332    0.0000 C.3     1  UNL1        0.1137
     56 C           7.7331    4.5332    0.0000 C.3     1  UNL1       -0.0361
     57 C           5.1350    3.0332    0.0000 C.3     1  UNL1        0.1626
     58 C           4.2690    3.5332    0.0000 C.3     1  UNL1        0.0272
     59 C           6.0010    0.5332    0.0000 C.3     1  UNL1        0.0369
     60 C           3.4030    3.0332    0.0000 C.3     1  UNL1        0.0911
     61 C           4.2690    1.5332    0.0000 C.3     1  UNL1        0.0871
     62 C           3.4030    2.0332    0.0000 C.3     1  UNL1        0.1073
     63 C           4.2690    0.5332    0.0000 C.3     1  UNL1       -0.0361
     64 C           2.5369    4.5332    0.0000 C.3     1  UNL1        0.0369
     65 H          17.3168    1.0389    0.0000 H       1  UNL1        0.0339
     66 H          16.9044   -0.3445    0.0000 H       1  UNL1        0.0741
     67 H          19.8677    0.0532    0.0000 H       1  UNL1        0.0385
     68 H          15.9683    0.5768    0.0000 H       1  UNL1        0.0305
     69 H          16.3642   -0.1150    0.0000 H       1  UNL1        0.0305
     70 H          19.8003    2.0683    0.0000 H       1  UNL1        0.0294
     71 H          19.0129    2.3290    0.0000 H       1  UNL1        0.0294
     72 H          20.3015    0.5377    0.0000 H       1  UNL1        0.0273
     73 H          20.3047    1.3671    0.0000 H       1  UNL1        0.0273
     74 H          18.0791    2.8870    0.0000 H       1  UNL1        0.0336
     75 H          17.6906    3.5844    0.0000 H       1  UNL1        0.0336
     76 H          17.6867   -0.5375    0.0000 H       1  UNL1        0.0237
     77 H          18.3043   -1.1599    0.0000 H       1  UNL1        0.0237
     78 H          18.9267   -0.5423    0.0000 H       1  UNL1        0.0237
     79 H          14.3535    0.9361    0.0000 H       1  UNL1        0.0274
     80 H          15.1517    0.9484    0.0000 H       1  UNL1        0.0274
     81 H          16.5791    4.1560    0.0000 H       1  UNL1        0.0573
     82 H          19.2710    2.5038    0.0000 H       1  UNL1        0.2103
     83 H          15.0582    0.9747    0.0000 H       1  UNL1        0.0238
     84 H          15.6805    0.3571    0.0000 H       1  UNL1        0.0238
     85 H          16.2981    0.9795    0.0000 H       1  UNL1        0.0238
     86 H          18.2060    3.3371    0.0000 H       1  UNL1        0.2103
     87 H          15.1398    4.0434    0.0000 H       1  UNL1        0.0335
     88 H          14.3415    4.0496    0.0000 H       1  UNL1        0.0335
     89 H          13.1882    2.0519    0.0000 H       1  UNL1        0.0290
     90 H          13.5926    1.3637    0.0000 H       1  UNL1        0.0290
     91 H          13.7965    3.6532    0.0000 H       1  UNL1        0.0600
     92 H          20.4101   -1.6162    0.0000 H       1  UNL1        0.0306
     93 H          21.1464   -1.1402    0.0000 H       1  UNL1        0.0306
     94 H          20.6705   -0.4038    0.0000 H       1  UNL1        0.0306
     95 H          12.6002    2.7232    0.0000 H       1  UNL1        0.0910
     96 H          12.2753    1.4506    0.0000 H       1  UNL1        0.0340
     97 H          12.6738    2.1408    0.0000 H       1  UNL1        0.0340
     98 H          11.7341    1.2232    0.0000 H       1  UNL1        0.0624
     99 H          15.1632   -2.7178    0.0000 H       1  UNL1        0.0626
    100 H          17.9691   -2.7286    0.0000 H       1  UNL1        0.0626
    101 H          10.3312    3.6532    0.0000 H       1  UNL1        0.0621
    102 H           9.7942    2.3432    0.0000 H       1  UNL1        0.0649
    103 H          15.1570   -4.3378    0.0000 H       1  UNL1        0.0618
    104 H          17.9629   -4.3486    0.0000 H       1  UNL1        0.0618
    105 H           9.7751    4.0701    0.0000 H       1  UNL1        0.0255
    106 H           8.9282    3.8432    0.0000 H       1  UNL1        0.0255
    107 H           9.1551    2.9963    0.0000 H       1  UNL1        0.0255
    108 H          16.5568   -5.1532    0.0000 H       1  UNL1        0.0618
    109 H           8.5991    1.4132    0.0000 H       1  UNL1        0.0910
    110 H          11.7532   -0.5037    0.0000 H       1  UNL1        0.0524
    111 H          12.6002   -0.2768    0.0000 H       1  UNL1        0.0524
    112 H          12.3732    0.5701    0.0000 H       1  UNL1        0.0524
    113 H           7.3346    1.0582    0.0000 H       1  UNL1        0.0340
    114 H           8.1316    1.0582    0.0000 H       1  UNL1        0.0340
    115 H           6.3301    2.3432    0.0000 H       1  UNL1        0.0624
    116 H           8.2700    3.8432    0.0000 H       1  UNL1        0.0621
    117 H           6.8671    3.6532    0.0000 H       1  UNL1        0.0649
    118 H           8.3531    4.5332    0.0000 H       1  UNL1        0.0255
    119 H           7.7331    5.1532    0.0000 H       1  UNL1        0.0255
    120 H           7.1131    4.5332    0.0000 H       1  UNL1        0.0255
    121 H           5.1350    3.6532    0.0000 H       1  UNL1        0.0910
    122 H           4.6675    4.0081    0.0000 H       1  UNL1        0.0340
    123 H           3.8705    4.0081    0.0000 H       1  UNL1        0.0340
    124 H           5.3810    0.5332    0.0000 H       1  UNL1        0.0524
    125 H           6.0010   -0.0868    0.0000 H       1  UNL1        0.0524
    126 H           6.6210    0.5332    0.0000 H       1  UNL1        0.0524
    127 H           3.4030    3.6532    0.0000 H       1  UNL1        0.0624
    128 H           2.8660    2.3432    0.0000 H       1  UNL1        0.0645
    129 H           4.8059    1.2232    0.0000 H       1  UNL1        0.0621
    130 H           3.6490    0.5332    0.0000 H       1  UNL1        0.0255
    131 H           4.2690   -0.0868    0.0000 H       1  UNL1        0.0255
    132 H           4.8890    0.5332    0.0000 H       1  UNL1        0.0255
    133 H           2.0000    1.8432    0.0000 H       1  UNL1        0.2100
    134 H           3.1569    4.5332    0.0000 H       1  UNL1        0.0524
    135 H           2.5369    5.1532    0.0000 H       1  UNL1        0.0524
    136 H           1.9169    4.5332    0.0000 H       1  UNL1        0.0524
@<TRIPOS>BOND
     1    16     1    1
     2     1    82    1
     3    18     2    1
     4     2    86    1
     5    20     3    1
     6     3    37    1
     7    35     4    1
     8    38     4    1
     9     5    33    2
    10     6    37    2
    11     7    38    1
    12     7    44    1
    13    41     8    1
    14     8    51    1
    15    45     9    1
    16    50     9    1
    17    10    50    1
    18    10    54    1
    19    53    11    1
    20    11    59    1
    21    55    12    1
    22    57    12    1
    23    13    57    1
    24    13    61    1
    25    60    14    1
    26    14    64    1
    27    62    15    1
    28    15   133    1
    29    16    17    1
    30    16    18    1
    31    16    24    1
    32    17    20    1
    33    17    22    1
    34    17    27    1
    35    18    19    1
    36    18    26    1
    37    19    21    1
    38    19    23    1
    39    19    65    1
    40    20    23    1
    41    20    66    1
    42    21    28    1
    43    21    29    1
    44    21    31    1
    45    22    25    1
    46    22    33    1
    47    22    67    1
    48    23    68    1
    49    23    69    1
    50    24    25    1
    51    24    70    1
    52    24    71    1
    53    25    72    1
    54    25    73    1
    55    26    30    1
    56    26    74    1
    57    26    75    1
    58    27    76    1
    59    27    77    1
    60    27    78    1
    61    28    30    2
    62    28    32    1
    63    29    34    1
    64    29    79    1
    65    29    80    1
    66    30    81    1
    67    31    83    1
    68    31    84    1
    69    31    85    1
    70    32    35    1
    71    32    87    1
    72    32    88    1
    73    33    36    1
    74    34    35    1
    75    34    89    1
    76    34    90    1
    77    35    91    1
    78    36    92    1
    79    36    93    1
    80    36    94    1
    81    37    39    1
    82    38    40    1
    83    38    95    1
    84    39    42   ar
    85    39    43   ar
    86    40    41    1
    87    40    96    1
    88    40    97    1
    89    41    45    1
    90    41    98    1
    91    42    46   ar
    92    42    99    1
    93    43    47   ar
    94    43   100    1
    95    44    45    1
    96    44    48    1
    97    44   101    1
    98    45   102    1
    99    46    49   ar
   100    46   103    1
   101    47    49   ar
   102    47   104    1
   103    48   105    1
   104    48   106    1
   105    48   107    1
   106    49   108    1
   107    50    52    1
   108    50   109    1
   109    51   110    1
   110    51   111    1
   111    51   112    1
   112    52    53    1
   113    52   113    1
   114    52   114    1
   115    53    55    1
   116    53   115    1
   117    54    55    1
   118    54    56    1
   119    54   116    1
   120    55   117    1
   121    56   118    1
   122    56   119    1
   123    56   120    1
   124    57    58    1
   125    57   121    1
   126    58    60    1
   127    58   122    1
   128    58   123    1
   129    59   124    1
   130    59   125    1
   131    59   126    1
   132    60    62    1
   133    60   127    1
   134    61    62    1
   135    61    63    1
   136    61   129    1
   137    62   128    1
   138    63   130    1
   139    63   131    1
   140    63   132    1
   141    64   134    1
   142    64   135    1
   143    64   136    1
