@<TRIPOS>MOLECULE
IMPHY017002
 48 47 0 0 0
SMALL
GASTEIGER

@<TRIPOS>ATOM
      1 O           3.7320   -0.7500    0.0000 O.3     1  UNL1       -0.4649
      2 O           4.5981   -2.2500    0.0000 O.2     1  UNL1       -0.2509
      3 C           8.0622   -1.2500    0.0000 C.3     1  UNL1       -0.0530
      4 C           8.9282   -0.7500    0.0000 C.3     1  UNL1       -0.0528
      5 C           7.1962   -0.7500    0.0000 C.3     1  UNL1       -0.0526
      6 C           9.7942   -1.2500    0.0000 C.3     1  UNL1       -0.0496
      7 C           6.3301   -1.2500    0.0000 C.3     1  UNL1       -0.0430
      8 C          10.6603   -0.7500    0.0000 C.3     1  UNL1       -0.0348
      9 C           5.4641   -0.7500    0.0000 C.3     1  UNL1        0.0449
     10 C          11.5263   -1.2500    0.0000 C.2     1  UNL1       -0.0879
     11 C          12.3923    0.2500    0.0000 C.3     1  UNL1       -0.0348
     12 C          13.2583    0.7500    0.0000 C.3     1  UNL1       -0.0499
     13 C          12.3923   -0.7500    0.0000 C.2     1  UNL1       -0.0879
     14 C          13.2583    1.7500    0.0000 C.3     1  UNL1       -0.0556
     15 C           4.5981   -1.2500    0.0000 C.2     1  UNL1        0.3071
     16 C          14.1244    2.2500    0.0000 C.3     1  UNL1       -0.0653
     17 C           2.8660   -1.2500    0.0000 C.3     1  UNL1        0.0896
     18 C           2.0000   -0.7500    0.0000 C.3     1  UNL1       -0.0306
     19 H           7.6636   -1.7250    0.0000 H       1  UNL1        0.0265
     20 H           8.4607   -1.7250    0.0000 H       1  UNL1        0.0265
     21 H           9.3267   -0.2751    0.0000 H       1  UNL1        0.0265
     22 H           8.5297   -0.2751    0.0000 H       1  UNL1        0.0265
     23 H           7.5947   -0.2751    0.0000 H       1  UNL1        0.0265
     24 H           6.7976   -0.2751    0.0000 H       1  UNL1        0.0265
     25 H           9.3957   -1.7250    0.0000 H       1  UNL1        0.0268
     26 H          10.1928   -1.7250    0.0000 H       1  UNL1        0.0268
     27 H           5.9316   -1.7250    0.0000 H       1  UNL1        0.0270
     28 H           6.7287   -1.7250    0.0000 H       1  UNL1        0.0270
     29 H          11.0588   -0.2751    0.0000 H       1  UNL1        0.0307
     30 H          10.2617   -0.2751    0.0000 H       1  UNL1        0.0307
     31 H           5.8626   -0.2751    0.0000 H       1  UNL1        0.0377
     32 H           5.0656   -0.2751    0.0000 H       1  UNL1        0.0377
     33 H          11.5263   -1.8700    0.0000 H       1  UNL1        0.0569
     34 H          12.1803    0.8326    0.0000 H       1  UNL1        0.0307
     35 H          11.7817    0.1423    0.0000 H       1  UNL1        0.0307
     36 H          13.4704    0.1674    0.0000 H       1  UNL1        0.0268
     37 H          13.8689    0.8577    0.0000 H       1  UNL1        0.0268
     38 H          12.9292   -1.0600    0.0000 H       1  UNL1        0.0569
     39 H          13.0463    2.3326    0.0000 H       1  UNL1        0.0263
     40 H          12.6477    1.6423    0.0000 H       1  UNL1        0.0263
     41 H          14.4344    1.7131    0.0000 H       1  UNL1        0.0230
     42 H          14.6613    2.5600    0.0000 H       1  UNL1        0.0230
     43 H          13.8144    2.7869    0.0000 H       1  UNL1        0.0230
     44 H           2.4675   -1.7250    0.0000 H       1  UNL1        0.0694
     45 H           3.2646   -1.7250    0.0000 H       1  UNL1        0.0694
     46 H           2.3100   -0.2131    0.0000 H       1  UNL1        0.0262
     47 H           1.4631   -0.4400    0.0000 H       1  UNL1        0.0262
     48 H           1.6900   -1.2869    0.0000 H       1  UNL1        0.0262
@<TRIPOS>BOND
     1     1    15    1
     2     1    17    1
     3     2    15    2
     4     3     4    1
     5     3     5    1
     6     3    19    1
     7     3    20    1
     8     4     6    1
     9     4    21    1
    10     4    22    1
    11     5     7    1
    12     5    23    1
    13     5    24    1
    14     6     8    1
    15     6    25    1
    16     6    26    1
    17     7     9    1
    18     7    27    1
    19     7    28    1
    20     8    10    1
    21     8    29    1
    22     8    30    1
    23     9    15    1
    24     9    31    1
    25     9    32    1
    26    10    13    2
    27    10    33    1
    28    11    12    1
    29    11    13    1
    30    11    34    1
    31    11    35    1
    32    12    14    1
    33    12    36    1
    34    12    37    1
    35    13    38    1
    36    14    16    1
    37    14    39    1
    38    14    40    1
    39    16    41    1
    40    16    42    1
    41    16    43    1
    42    17    18    1
    43    17    44    1
    44    17    45    1
    45    18    46    1
    46    18    47    1
    47    18    48    1
