@<TRIPOS>MOLECULE
IMPHY016687
 36 36 0 0 0
SMALL
GASTEIGER

@<TRIPOS>ATOM
      1 O           4.5981    2.5000    0.0000 O.2     1  UNL1       -0.2960
      2 C           6.3301    0.5000    0.0000 C.3     1  UNL1       -0.0528
      3 C           5.4641    1.0000    0.0000 C.3     1  UNL1       -0.0490
      4 C           7.1962    1.0000    0.0000 C.3     1  UNL1       -0.0533
      5 C           4.5981    0.5000    0.0000 C.3     1  UNL1       -0.0246
      6 C           8.0622    0.5000    0.0000 C.3     1  UNL1       -0.0559
      7 C           3.7320    1.0000    0.0000 C.2     1  UNL1       -0.0076
      8 C           8.9282    1.0000    0.0000 C.3     1  UNL1       -0.0653
      9 C           2.8660    0.5000    0.0000 C.2     1  UNL1       -0.0484
     10 C           2.8660   -0.5000    0.0000 C.ar    1  UNL1       -0.0247
     11 C           3.7320    2.0000    0.0000 C.2     1  UNL1        0.1463
     12 C           2.0000   -1.0000    0.0000 C.ar    1  UNL1       -0.0546
     13 C           3.7320   -1.0000    0.0000 C.ar    1  UNL1       -0.0546
     14 C           2.0000   -2.0000    0.0000 C.ar    1  UNL1       -0.0612
     15 C           3.7320   -2.0000    0.0000 C.ar    1  UNL1       -0.0612
     16 C           2.8660   -2.5000    0.0000 C.ar    1  UNL1       -0.0617
     17 H           5.9316    0.0251    0.0000 H       1  UNL1        0.0265
     18 H           6.7287    0.0251    0.0000 H       1  UNL1        0.0265
     19 H           5.8626    1.4750    0.0000 H       1  UNL1        0.0268
     20 H           5.0656    1.4750    0.0000 H       1  UNL1        0.0268
     21 H           7.5947    1.4750    0.0000 H       1  UNL1        0.0265
     22 H           6.7976    1.4750    0.0000 H       1  UNL1        0.0265
     23 H           4.1996    0.0251    0.0000 H       1  UNL1        0.0314
     24 H           4.9966    0.0251    0.0000 H       1  UNL1        0.0314
     25 H           7.6636    0.0251    0.0000 H       1  UNL1        0.0263
     26 H           8.4607    0.0251    0.0000 H       1  UNL1        0.0263
     27 H           9.2382    0.4631    0.0000 H       1  UNL1        0.0230
     28 H           9.4651    1.3100    0.0000 H       1  UNL1        0.0230
     29 H           8.6182    1.5369    0.0000 H       1  UNL1        0.0230
     30 H           2.3291    0.8100    0.0000 H       1  UNL1        0.0627
     31 H           3.1951    2.3100    0.0000 H       1  UNL1        0.1078
     32 H           1.4631   -0.6900    0.0000 H       1  UNL1        0.0623
     33 H           4.2690   -0.6900    0.0000 H       1  UNL1        0.0623
     34 H           1.4631   -2.3100    0.0000 H       1  UNL1        0.0618
     35 H           4.2690   -2.3100    0.0000 H       1  UNL1        0.0618
     36 H           2.8660   -3.1200    0.0000 H       1  UNL1        0.0618
@<TRIPOS>BOND
     1     1    11    2
     2     2     3    1
     3     2     4    1
     4     2    17    1
     5     2    18    1
     6     3     5    1
     7     3    19    1
     8     3    20    1
     9     4     6    1
    10     4    21    1
    11     4    22    1
    12     5     7    1
    13     5    23    1
    14     5    24    1
    15     6     8    1
    16     6    25    1
    17     6    26    1
    18     7     9    2
    19     7    11    1
    20     8    27    1
    21     8    28    1
    22     8    29    1
    23     9    10    1
    24     9    30    1
    25    10    12   ar
    26    10    13   ar
    27    11    31    1
    28    12    14   ar
    29    12    32    1
    30    13    15   ar
    31    13    33    1
    32    14    16   ar
    33    14    34    1
    34    15    16   ar
    35    15    35    1
    36    16    36    1
