@<TRIPOS>MOLECULE
IMPHY008105
 54 56 0 0 0
SMALL
GASTEIGER

@<TRIPOS>ATOM
      1 O           6.0682   -1.0000    0.0000 O.2     1  UNL1       -0.4470
      2 O           7.8003    1.0000    0.0000 O.3     1  UNL1       -0.4148
      3 O           4.3198   -2.0346    0.0000 O.3     1  UNL1       -0.4885
      4 O           4.3198    2.0346    0.0000 O.3     1  UNL1       -0.5058
      5 O           6.0682    2.0000    0.0000 O.2     1  UNL1       -0.2830
      6 O           2.5381   -1.0241    0.0000 O.3     1  UNL1       -0.5031
      7 O           8.6663   -3.5000    0.0000 O.3     1  UNL1       -0.4914
      8 O          10.3984   -2.5000    0.0000 O.3     1  UNL1       -0.4915
      9 O           6.9343    2.5000    0.0000 O.2     1  UNL1       -0.2449
     10 C           5.2022    0.5000    0.0000 C.ar    1  UNL1        0.1129
     11 C           5.2022   -0.5000    0.0000 C.ar    1  UNL1        0.1881
     12 C           6.9343   -0.5000    0.0000 C.ar    1  UNL1        0.1818
     13 C           6.9343    0.5000    0.0000 C.ar    1  UNL1        0.2217
     14 C           7.8003   -1.0000    0.0000 C.ar    1  UNL1        0.0248
     15 C           6.0682    1.0000    0.0000 C.ar    1  UNL1        0.2389
     16 C           4.3083   -1.0347    0.0000 C.ar    1  UNL1        0.2049
     17 C           4.3083    1.0347    0.0000 C.ar    1  UNL1        0.1350
     18 C           3.4022   -0.5208    0.0000 C.ar    1  UNL1        0.1657
     19 C           3.4022    0.5208    0.0000 C.ar    1  UNL1        0.0259
     20 C           7.8003   -2.0000    0.0000 C.ar    1  UNL1       -0.0055
     21 C           8.6663   -0.5000    0.0000 C.ar    1  UNL1       -0.0473
     22 C           8.6663   -2.5000    0.0000 C.ar    1  UNL1        0.1622
     23 C           9.5323   -2.0000    0.0000 C.ar    1  UNL1        0.1615
     24 C           9.5323   -1.0000    0.0000 C.ar    1  UNL1       -0.0156
     25 C           7.8003    2.0000    0.0000 C.2     1  UNL1        0.3400
     26 C           8.6663    2.5000    0.0000 C.2     1  UNL1        0.0298
     27 C           3.4597   -2.5446    0.0000 C.3     1  UNL1        0.0791
     28 C           9.5323    2.0000    0.0000 C.3     1  UNL1       -0.0332
     29 C           9.5323   -4.0000    0.0000 C.3     1  UNL1        0.0790
     30 C           8.6663    3.5000    0.0000 C.2     1  UNL1       -0.0774
     31 C          11.2644   -2.0000    0.0000 C.3     1  UNL1        0.0790
     32 C           7.8003    4.0000    0.0000 C.3     1  UNL1       -0.0461
     33 H           2.8665    0.8329    0.0000 H       1  UNL1        0.0692
     34 H           7.2634   -2.3100    0.0000 H       1  UNL1        0.0662
     35 H           8.6663    0.1200    0.0000 H       1  UNL1        0.0626
     36 H          10.0693   -0.6900    0.0000 H       1  UNL1        0.0655
     37 H           3.7865    2.3508    0.0000 H       1  UNL1        0.2922
     38 H           2.0000   -0.7162    0.0000 H       1  UNL1        0.2923
     39 H           3.1435   -2.0113    0.0000 H       1  UNL1        0.0660
     40 H           2.9263   -2.8608    0.0000 H       1  UNL1        0.0660
     41 H           3.7758   -3.0779    0.0000 H       1  UNL1        0.0660
     42 H           9.2224    1.4631    0.0000 H       1  UNL1        0.0280
     43 H          10.0693    1.6900    0.0000 H       1  UNL1        0.0280
     44 H           9.8424    2.5369    0.0000 H       1  UNL1        0.0280
     45 H           9.2224   -4.5369    0.0000 H       1  UNL1        0.0660
     46 H          10.0693   -4.3100    0.0000 H       1  UNL1        0.0660
     47 H           9.8424   -3.4631    0.0000 H       1  UNL1        0.0660
     48 H           9.2033    3.8100    0.0000 H       1  UNL1        0.0574
     49 H          11.5744   -2.5369    0.0000 H       1  UNL1        0.0660
     50 H          11.8013   -1.6900    0.0000 H       1  UNL1        0.0660
     51 H          10.9544   -1.4631    0.0000 H       1  UNL1        0.0660
     52 H           8.1103    4.5369    0.0000 H       1  UNL1        0.0272
     53 H           7.2634    4.3100    0.0000 H       1  UNL1        0.0272
     54 H           7.4903    3.4631    0.0000 H       1  UNL1        0.0272
@<TRIPOS>BOND
     1     1    11   ar
     2     1    12   ar
     3     2    13    1
     4     2    25    1
     5     3    16    1
     6     3    27    1
     7     4    17    1
     8     4    37    1
     9     5    15    2
    10     6    18    1
    11     6    38    1
    12     7    22    1
    13     7    29    1
    14     8    23    1
    15     8    31    1
    16     9    25    2
    17    10    11   ar
    18    10    15   ar
    19    10    17   ar
    20    11    16   ar
    21    12    13   ar
    22    12    14    1
    23    13    15   ar
    24    14    20   ar
    25    14    21   ar
    26    16    18   ar
    27    17    19   ar
    28    18    19   ar
    29    19    33    1
    30    20    22   ar
    31    20    34    1
    32    21    24   ar
    33    21    35    1
    34    22    23   ar
    35    23    24   ar
    36    24    36    1
    37    25    26    1
    38    26    28    1
    39    26    30    2
    40    27    39    1
    41    27    40    1
    42    27    41    1
    43    28    42    1
    44    28    43    1
    45    28    44    1
    46    29    45    1
    47    29    46    1
    48    29    47    1
    49    30    32    1
    50    30    48    1
    51    31    49    1
    52    31    50    1
    53    31    51    1
    54    32    52    1
    55    32    53    1
    56    32    54    1
