@<TRIPOS>MOLECULE
IMPHY003696
 81 84 0 0 0
SMALL
GASTEIGER

@<TRIPOS>ATOM
      1 O           2.5357   -3.9318    0.0000 O.3     1  UNL1       -0.3912
      2 O          11.4069    4.3841    0.0000 O.3     1  UNL1       -0.4774
      3 O          10.1177    3.2274    0.0000 O.2     1  UNL1       -0.2455
      4 C           7.9288   -0.8795    0.0000 C.3     1  UNL1       -0.0199
      5 C           7.9288   -1.8794    0.0000 C.3     1  UNL1       -0.0051
      6 C           6.1968   -1.8794    0.0000 C.3     1  UNL1       -0.0137
      7 C           5.2868   -2.3863    0.0000 C.3     1  UNL1       -0.0218
      8 C           8.8750   -0.5747    0.0000 C.3     1  UNL1       -0.0322
      9 C           7.0628   -2.3794    0.0000 C.2     1  UNL1       -0.0634
     10 C           5.2787   -3.4279    0.0000 C.3     1  UNL1       -0.0242
     11 C           7.0628   -0.3795    0.0000 C.3     1  UNL1       -0.0460
     12 C           8.8750   -2.1842    0.0000 C.3     1  UNL1       -0.0431
     13 C           6.1968   -0.8795    0.0000 C.3     1  UNL1       -0.0455
     14 C           9.4586   -1.3794    0.0000 C.3     1  UNL1       -0.0486
     15 C           4.3433   -3.9776    0.0000 C.3     1  UNL1       -0.0053
     16 C           4.3599   -1.8222    0.0000 C.3     1  UNL1       -0.0444
     17 C           6.1808   -3.9487    0.0000 C.3     1  UNL1       -0.0306
     18 C           7.9288    0.1205    0.0000 C.3     1  UNL1       -0.0585
     19 C           7.9288   -2.8794    0.0000 C.3     1  UNL1       -0.0553
     20 C           9.1857    0.3758    0.0000 C.3     1  UNL1       -0.0402
     21 C           7.0789   -3.4210    0.0000 C.2     1  UNL1       -0.0836
     22 C           3.4037   -3.4351    0.0000 C.3     1  UNL1        0.0606
     23 C           5.2945   -1.3863    0.0000 C.3     1  UNL1       -0.0587
     24 C           3.4120   -2.3502    0.0000 C.3     1  UNL1       -0.0258
     25 C           3.8467   -4.8456    0.0000 C.3     1  UNL1       -0.0572
     26 C           4.8466   -4.8417    0.0000 C.3     1  UNL1       -0.0572
     27 C          10.1642    0.5820    0.0000 C.3     1  UNL1       -0.0467
     28 C           8.5179    1.1201    0.0000 C.3     1  UNL1       -0.0621
     29 C          10.4749    1.5325    0.0000 C.3     1  UNL1       -0.0338
     30 C          11.4534    1.7388    0.0000 C.2     1  UNL1       -0.0743
     31 C          11.7640    2.6893    0.0000 C.2     1  UNL1        0.0294
     32 C          12.7425    2.8955    0.0000 C.3     1  UNL1       -0.0332
     33 C          11.0962    3.4336    0.0000 C.2     1  UNL1        0.3322
     34 H           6.9329   -1.4544    0.0000 H       1  UNL1        0.0351
     35 H           9.7148   -0.4428    0.0000 H       1  UNL1        0.0309
     36 H           5.2820   -4.2779    0.0000 H       1  UNL1        0.0315
     37 H           7.4613    0.0955    0.0000 H       1  UNL1        0.0271
     38 H           6.6643    0.0955    0.0000 H       1  UNL1        0.0271
     39 H           8.6240   -2.7511    0.0000 H       1  UNL1        0.0274
     40 H           9.4124   -2.4934    0.0000 H       1  UNL1        0.0274
     41 H           5.9847   -0.2968    0.0000 H       1  UNL1        0.0271
     42 H           5.5862   -0.9871    0.0000 H       1  UNL1        0.0271
     43 H           9.9195   -1.7942    0.0000 H       1  UNL1        0.0268
     44 H           9.9195   -0.9647    0.0000 H       1  UNL1        0.0268
     45 H           4.7681   -1.3556    0.0000 H       1  UNL1        0.0272
     46 H           3.9700   -1.3402    0.0000 H       1  UNL1        0.0272
     47 H           5.7835   -4.4247    0.0000 H       1  UNL1        0.0310
     48 H           6.5818   -4.4216    0.0000 H       1  UNL1        0.0310
     49 H           8.5488    0.1205    0.0000 H       1  UNL1        0.0235
     50 H           7.9288    0.7405    0.0000 H       1  UNL1        0.0235
     51 H           7.3088    0.1205    0.0000 H       1  UNL1        0.0235
     52 H           7.3088   -2.8794    0.0000 H       1  UNL1        0.0238
     53 H           7.9288   -3.4994    0.0000 H       1  UNL1        0.0238
     54 H           8.5488   -2.8794    0.0000 H       1  UNL1        0.0238
     55 H           9.3783    0.9651    0.0000 H       1  UNL1        0.0301
     56 H           7.6193   -3.7247    0.0000 H       1  UNL1        0.0572
     57 H           3.4025   -4.0551    0.0000 H       1  UNL1        0.0599
     58 H           5.9145   -1.3911    0.0000 H       1  UNL1        0.0235
     59 H           5.2993   -0.7663    0.0000 H       1  UNL1        0.0235
     60 H           4.6745   -1.3816    0.0000 H       1  UNL1        0.0235
     61 H           3.2075   -1.7649    0.0000 H       1  UNL1        0.0290
     62 H           2.8004   -2.4515    0.0000 H       1  UNL1        0.0290
     63 H           3.3085   -4.5376    0.0000 H       1  UNL1        0.0236
     64 H           3.5387   -5.3837    0.0000 H       1  UNL1        0.0236
     65 H           4.3848   -5.1535    0.0000 H       1  UNL1        0.0236
     66 H           4.3109   -5.1538    0.0000 H       1  UNL1        0.0236
     67 H           5.1587   -5.3774    0.0000 H       1  UNL1        0.0236
     68 H           5.3824   -4.5296    0.0000 H       1  UNL1        0.0236
     69 H          10.1848   -0.0376    0.0000 H       1  UNL1        0.0271
     70 H          10.7780    0.4947    0.0000 H       1  UNL1        0.0271
     71 H           8.9793    1.5342    0.0000 H       1  UNL1        0.0233
     72 H           8.1038    1.5816    0.0000 H       1  UNL1        0.0233
     73 H           8.0564    0.7060    0.0000 H       1  UNL1        0.0233
     74 H           2.0000   -3.6197    0.0000 H       1  UNL1        0.2098
     75 H          10.4543    2.1522    0.0000 H       1  UNL1        0.0308
     76 H           9.8611    1.6199    0.0000 H       1  UNL1        0.0308
     77 H          11.8674    1.2773    0.0000 H       1  UNL1        0.0577
     78 H          12.8704    2.2888    0.0000 H       1  UNL1        0.0280
     79 H          13.3492    3.0234    0.0000 H       1  UNL1        0.0280
     80 H          12.6147    3.5022    0.0000 H       1  UNL1        0.0280
     81 H          10.9928    4.8456    0.0000 H       1  UNL1        0.2954
@<TRIPOS>BOND
     1    22     1    1
     2     1    74    1
     3     2    33    1
     4     2    81    1
     5     3    33    2
     6     4     5    1
     7     4     8    1
     8     4    11    1
     9     4    18    1
    10     5     9    1
    11     5    12    1
    12     5    19    1
    13     6     7    1
    14     6     9    1
    15     6    13    1
    16     6    34    1
    17     7    10    1
    18     7    16    1
    19     7    23    1
    20     8    14    1
    21     8    20    1
    22     8    35    1
    23     9    21    2
    24    10    15    1
    25    10    17    1
    26    10    36    1
    27    11    13    1
    28    11    37    1
    29    11    38    1
    30    12    14    1
    31    12    39    1
    32    12    40    1
    33    13    41    1
    34    13    42    1
    35    14    43    1
    36    14    44    1
    37    15    22    1
    38    15    25    1
    39    15    26    1
    40    16    24    1
    41    16    45    1
    42    16    46    1
    43    17    21    1
    44    17    47    1
    45    17    48    1
    46    18    49    1
    47    18    50    1
    48    18    51    1
    49    19    52    1
    50    19    53    1
    51    19    54    1
    52    20    27    1
    53    20    28    1
    54    20    55    1
    55    21    56    1
    56    22    24    1
    57    22    57    1
    58    23    58    1
    59    23    59    1
    60    23    60    1
    61    24    61    1
    62    24    62    1
    63    25    63    1
    64    25    64    1
    65    25    65    1
    66    26    66    1
    67    26    67    1
    68    26    68    1
    69    27    29    1
    70    27    69    1
    71    27    70    1
    72    28    71    1
    73    28    72    1
    74    28    73    1
    75    29    30    1
    76    29    75    1
    77    29    76    1
    78    30    31    2
    79    30    77    1
    80    31    32    1
    81    31    33    1
    82    32    78    1
    83    32    79    1
    84    32    80    1
