@<TRIPOS>MOLECULE
IMPHY000762
 52 54 0 0 0
SMALL
GASTEIGER

@<TRIPOS>ATOM
      1 O           7.1987    0.9428    0.0000 O.3     1  UNL1       -0.4622
      2 O           6.3239   -1.2378    0.0000 O.3     1  UNL1       -0.3767
      3 O           7.8373   -0.7208    0.0000 O.2     1  UNL1       -0.2476
      4 O           4.9836    4.1561    0.0000 O.3     1  UNL1       -0.4914
      5 O           3.5179   -3.7596    0.0000 O.3     1  UNL1       -0.4915
      6 O           2.9945    4.3651    0.0000 O.3     1  UNL1       -0.4915
      7 O           5.2500   -4.7596    0.0000 O.3     1  UNL1       -0.5033
      8 C           5.6160    0.6064    0.0000 C.3     1  UNL1        0.0368
      9 C           6.1160   -0.2596    0.0000 C.3     1  UNL1        0.1721
     10 C           6.2851    1.3496    0.0000 C.3     1  UNL1        0.0988
     11 C           4.6215    0.7109    0.0000 C.3     1  UNL1       -0.0185
     12 C           5.2500   -0.7596    0.0000 C.3     1  UNL1        0.0123
     13 C           7.0941   -0.0517    0.0000 C.2     1  UNL1        0.3399
     14 C           4.2147    1.6245    0.0000 C.ar    1  UNL1       -0.0432
     15 C           5.2500   -1.7596    0.0000 C.ar    1  UNL1       -0.0404
     16 C           4.8025    2.4335    0.0000 C.ar    1  UNL1       -0.0131
     17 C           3.2202    1.7290    0.0000 C.ar    1  UNL1       -0.0549
     18 C           4.3839   -2.2596    0.0000 C.ar    1  UNL1       -0.0130
     19 C           6.1160   -2.2596    0.0000 C.ar    1  UNL1       -0.0548
     20 C           4.3958    3.3470    0.0000 C.ar    1  UNL1        0.1617
     21 C           4.3839   -3.2596    0.0000 C.ar    1  UNL1        0.1615
     22 C           2.8135    2.6426    0.0000 C.ar    1  UNL1       -0.0160
     23 C           6.1160   -3.2596    0.0000 C.ar    1  UNL1       -0.0163
     24 C           3.4013    3.4516    0.0000 C.ar    1  UNL1        0.1615
     25 C           5.2500   -3.7596    0.0000 C.ar    1  UNL1        0.1585
     26 C           4.5768    5.0696    0.0000 C.3     1  UNL1        0.0790
     27 C           2.6519   -3.2596    0.0000 C.3     1  UNL1        0.0790
     28 C           2.0000    4.4696    0.0000 C.3     1  UNL1        0.0790
     29 H           5.3938    1.1852    0.0000 H       1  UNL1        0.0370
     30 H           6.5951    1.8865    0.0000 H       1  UNL1        0.0701
     31 H           5.7835    1.7140    0.0000 H       1  UNL1        0.0701
     32 H           4.0199    0.5609    0.0000 H       1  UNL1        0.0318
     33 H           4.6647    0.0925    0.0000 H       1  UNL1        0.0318
     34 H           5.0379   -0.1770    0.0000 H       1  UNL1        0.0347
     35 H           4.6394   -0.8673    0.0000 H       1  UNL1        0.0347
     36 H           5.8632   -1.6526    0.0000 H       1  UNL1        0.2109
     37 H           5.4191    2.3687    0.0000 H       1  UNL1        0.0658
     38 H           2.8558    1.2274    0.0000 H       1  UNL1        0.0621
     39 H           3.8470   -1.9496    0.0000 H       1  UNL1        0.0658
     40 H           6.6529   -1.9496    0.0000 H       1  UNL1        0.0621
     41 H           2.1969    2.7074    0.0000 H       1  UNL1        0.0655
     42 H           6.6529   -3.5696    0.0000 H       1  UNL1        0.0655
     43 H           5.7869   -5.0696    0.0000 H       1  UNL1        0.2923
     44 H           5.1432    5.3218    0.0000 H       1  UNL1        0.0660
     45 H           4.3246    5.6360    0.0000 H       1  UNL1        0.0660
     46 H           4.0104    4.8174    0.0000 H       1  UNL1        0.0660
     47 H           2.9619   -2.7227    0.0000 H       1  UNL1        0.0660
     48 H           2.1150   -2.9496    0.0000 H       1  UNL1        0.0660
     49 H           2.3419   -3.7966    0.0000 H       1  UNL1        0.0660
     50 H           2.0648    5.0863    0.0000 H       1  UNL1        0.0660
     51 H           1.3834    4.5345    0.0000 H       1  UNL1        0.0660
     52 H           1.9352    3.8530    0.0000 H       1  UNL1        0.0660
@<TRIPOS>BOND
     1     1    10    1
     2     1    13    1
     3     9     2    1
     4     2    36    1
     5     3    13    2
     6     4    20    1
     7     4    26    1
     8     5    21    1
     9     5    27    1
    10     6    24    1
    11     6    28    1
    12     7    25    1
    13     7    43    1
    14     8     9    1
    15     8    10    1
    16     8    11    1
    17     8    29    1
    18     9    12    1
    19     9    13    1
    20    10    30    1
    21    10    31    1
    22    11    14    1
    23    11    32    1
    24    11    33    1
    25    12    15    1
    26    12    34    1
    27    12    35    1
    28    14    16   ar
    29    14    17   ar
    30    15    18   ar
    31    15    19   ar
    32    16    20   ar
    33    16    37    1
    34    17    22   ar
    35    17    38    1
    36    18    21   ar
    37    18    39    1
    38    19    23   ar
    39    19    40    1
    40    20    24   ar
    41    21    25   ar
    42    22    24   ar
    43    22    41    1
    44    23    25   ar
    45    23    42    1
    46    26    44    1
    47    26    45    1
    48    26    46    1
    49    27    47    1
    50    27    48    1
    51    27    49    1
    52    28    50    1
    53    28    51    1
    54    28    52    1
