@<TRIPOS>MOLECULE
IMPHY014590
 81 84 0 0 0
SMALL
GASTEIGER

@<TRIPOS>ATOM
      1 O           8.6500   -2.4287    0.0000 O.3     1  UNL1       -0.3909
      2 O           2.0000   -3.2258    0.0000 O.2     1  UNL1       -0.2968
      3 C           7.3931   -0.1735    0.0000 C.3     1  UNL1       -0.0138
      4 C           7.3931   -1.1735    0.0000 C.3     1  UNL1        0.0247
      5 C           8.3393    0.1313    0.0000 C.3     1  UNL1       -0.0295
      6 C           8.3393   -1.4782    0.0000 C.3     1  UNL1        0.0654
      7 C           8.9229   -0.6735    0.0000 C.3     1  UNL1       -0.0224
      8 C           6.5271   -1.6735    0.0000 C.2     1  UNL1       -0.0390
      9 C           4.7510   -1.6803    0.0000 C.3     1  UNL1       -0.0027
     10 C           6.5271    0.3265    0.0000 C.3     1  UNL1       -0.0276
     11 C           5.6610   -1.1735    0.0000 C.2     1  UNL1       -0.0415
     12 C           4.7430   -2.7219    0.0000 C.3     1  UNL1       -0.0164
     13 C           8.6500    1.0818    0.0000 C.3     1  UNL1       -0.0401
     14 C           7.3931    0.8265    0.0000 C.3     1  UNL1       -0.0581
     15 C           7.3931   -2.1735    0.0000 C.3     1  UNL1       -0.0526
     16 C           5.6610   -0.1735    0.0000 C.2     1  UNL1       -0.0795
     17 C           3.8076   -3.2716    0.0000 C.3     1  UNL1        0.0273
     18 C           5.6451   -3.2427    0.0000 C.3     1  UNL1       -0.0297
     19 C           6.5431   -2.7150    0.0000 C.2     1  UNL1       -0.0796
     20 C           3.8242   -1.1162    0.0000 C.3     1  UNL1       -0.0366
     21 C           4.7587   -0.6803    0.0000 C.3     1  UNL1       -0.0552
     22 C           9.6285    1.2880    0.0000 C.3     1  UNL1       -0.0465
     23 C           2.8763   -1.6442    0.0000 C.3     1  UNL1        0.0072
     24 C           2.8680   -2.7291    0.0000 C.2     1  UNL1        0.1393
     25 C           7.9821    1.8261    0.0000 C.3     1  UNL1       -0.0621
     26 C           3.3109   -4.1396    0.0000 C.3     1  UNL1       -0.0528
     27 C           4.3109   -4.1357    0.0000 C.3     1  UNL1       -0.0528
     28 C           9.9391    2.2385    0.0000 C.3     1  UNL1       -0.0315
     29 C          10.9176    2.4448    0.0000 C.2     1  UNL1       -0.0740
     30 C          11.2283    3.3953    0.0000 C.3     1  UNL1       -0.0258
     31 C          11.5855    1.7004    0.0000 C.2     1  UNL1       -0.0992
     32 C          12.2068    3.6015    0.0000 C.3     1  UNL1       -0.0590
     33 C          10.5605    4.1396    0.0000 C.3     1  UNL1       -0.0590
     34 H           9.1790    0.2632    0.0000 H       1  UNL1        0.0310
     35 H           7.9018   -1.9175    0.0000 H       1  UNL1        0.0602
     36 H           9.3838   -1.0882    0.0000 H       1  UNL1        0.0293
     37 H           9.3838   -0.2587    0.0000 H       1  UNL1        0.0293
     38 H           6.9256    0.8015    0.0000 H       1  UNL1        0.0313
     39 H           6.1285    0.8015    0.0000 H       1  UNL1        0.0313
     40 H           4.7463   -3.5719    0.0000 H       1  UNL1        0.0321
     41 H           8.0433    0.9539    0.0000 H       1  UNL1        0.0301
     42 H           8.0131    0.8265    0.0000 H       1  UNL1        0.0236
     43 H           7.3931    1.4465    0.0000 H       1  UNL1        0.0236
     44 H           6.7731    0.8265    0.0000 H       1  UNL1        0.0236
     45 H           6.7731   -2.1735    0.0000 H       1  UNL1        0.0239
     46 H           7.3931   -2.7935    0.0000 H       1  UNL1        0.0239
     47 H           8.0131   -2.1735    0.0000 H       1  UNL1        0.0239
     48 H           5.1241    0.1365    0.0000 H       1  UNL1        0.0575
     49 H           5.2478   -3.7187    0.0000 H       1  UNL1        0.0311
     50 H           6.0460   -3.7156    0.0000 H       1  UNL1        0.0311
     51 H           7.0836   -3.0187    0.0000 H       1  UNL1        0.0575
     52 H           4.2324   -0.6496    0.0000 H       1  UNL1        0.0278
     53 H           3.4343   -0.6342    0.0000 H       1  UNL1        0.0278
     54 H           5.3787   -0.6851    0.0000 H       1  UNL1        0.0238
     55 H           4.7635   -0.0604    0.0000 H       1  UNL1        0.0238
     56 H           4.1388   -0.6756    0.0000 H       1  UNL1        0.0238
     57 H           9.6490    0.6684    0.0000 H       1  UNL1        0.0271
     58 H          10.2423    1.2007    0.0000 H       1  UNL1        0.0271
     59 H           2.6718   -1.0589    0.0000 H       1  UNL1        0.0342
     60 H           2.2647   -1.7456    0.0000 H       1  UNL1        0.0342
     61 H           9.2566   -2.5566    0.0000 H       1  UNL1        0.2098
     62 H           8.4436    2.2402    0.0000 H       1  UNL1        0.0233
     63 H           7.5681    2.2876    0.0000 H       1  UNL1        0.0233
     64 H           7.5207    1.4120    0.0000 H       1  UNL1        0.0233
     65 H           2.7728   -3.8316    0.0000 H       1  UNL1        0.0239
     66 H           3.0030   -4.6777    0.0000 H       1  UNL1        0.0239
     67 H           3.8490   -4.4475    0.0000 H       1  UNL1        0.0239
     68 H           3.7752   -4.4478    0.0000 H       1  UNL1        0.0239
     69 H           4.6230   -4.6715    0.0000 H       1  UNL1        0.0239
     70 H           4.8466   -3.8236    0.0000 H       1  UNL1        0.0239
     71 H           9.9186    2.8582    0.0000 H       1  UNL1        0.0310
     72 H           9.3253    2.3259    0.0000 H       1  UNL1        0.0310
     73 H          11.4209    3.9846    0.0000 H       1  UNL1        0.0340
     74 H          11.3929    1.1111    0.0000 H       1  UNL1        0.0534
     75 H          12.1922    1.8283    0.0000 H       1  UNL1        0.0534
     76 H          12.3347    2.9948    0.0000 H       1  UNL1        0.0235
     77 H          12.8135    3.7294    0.0000 H       1  UNL1        0.0235
     78 H          12.0790    4.2082    0.0000 H       1  UNL1        0.0235
     79 H          11.0219    4.5536    0.0000 H       1  UNL1        0.0235
     80 H          10.1464    4.6010    0.0000 H       1  UNL1        0.0235
     81 H          10.0990    3.7255    0.0000 H       1  UNL1        0.0235
@<TRIPOS>BOND
     1     6     1    1
     2     1    61    1
     3     2    24    2
     4     3     4    1
     5     3     5    1
     6     3    10    1
     7     3    14    1
     8     4     6    1
     9     4     8    1
    10     4    15    1
    11     5     7    1
    12     5    13    1
    13     5    34    1
    14     6     7    1
    15     6    35    1
    16     7    36    1
    17     7    37    1
    18     8    11    1
    19     8    19    2
    20     9    11    1
    21     9    12    1
    22     9    20    1
    23     9    21    1
    24    10    16    1
    25    10    38    1
    26    10    39    1
    27    11    16    2
    28    12    17    1
    29    12    18    1
    30    12    40    1
    31    13    22    1
    32    13    25    1
    33    13    41    1
    34    14    42    1
    35    14    43    1
    36    14    44    1
    37    15    45    1
    38    15    46    1
    39    15    47    1
    40    16    48    1
    41    17    24    1
    42    17    26    1
    43    17    27    1
    44    18    19    1
    45    18    49    1
    46    18    50    1
    47    19    51    1
    48    20    23    1
    49    20    52    1
    50    20    53    1
    51    21    54    1
    52    21    55    1
    53    21    56    1
    54    22    28    1
    55    22    57    1
    56    22    58    1
    57    23    24    1
    58    23    59    1
    59    23    60    1
    60    25    62    1
    61    25    63    1
    62    25    64    1
    63    26    65    1
    64    26    66    1
    65    26    67    1
    66    27    68    1
    67    27    69    1
    68    27    70    1
    69    28    29    1
    70    28    71    1
    71    28    72    1
    72    29    30    1
    73    29    31    2
    74    30    32    1
    75    30    33    1
    76    30    73    1
    77    31    74    1
    78    31    75    1
    79    32    76    1
    80    32    77    1
    81    32    78    1
    82    33    79    1
    83    33    80    1
    84    33    81    1
