@<TRIPOS>MOLECULE
IMPHY000227
 77 81 0 0 0
SMALL
GASTEIGER

@<TRIPOS>ATOM
      1 O           7.0628    2.5781    0.0000 O.3     1  UNL1       -0.3915
      2 O          10.5929   -0.4461    0.0000 O.3     1  UNL1       -0.3912
      3 O           2.5357   -1.9743    0.0000 O.3     1  UNL1       -0.3912
      4 C           7.0628   -0.4219    0.0000 C.3     1  UNL1       -0.0228
      5 C           7.9288    0.0781    0.0000 C.3     1  UNL1       -0.0184
      6 C           6.1968    0.0781    0.0000 C.3     1  UNL1       -0.0271
      7 C           7.9288    1.0781    0.0000 C.3     1  UNL1       -0.0030
      8 C           5.2868   -0.4288    0.0000 C.3     1  UNL1       -0.0252
      9 C           8.8228    1.6127    0.0000 C.3     1  UNL1       -0.0173
     10 C           5.2787   -1.4704    0.0000 C.3     1  UNL1       -0.0278
     11 C           6.1968    1.0781    0.0000 C.3     1  UNL1       -0.0227
     12 C           7.0789   -1.4634    0.0000 C.3     1  UNL1       -0.0466
     13 C           7.0628    1.5781    0.0000 C.3     1  UNL1        0.0594
     14 C           8.8228   -0.4566    0.0000 C.3     1  UNL1       -0.0200
     15 C           9.7288    1.0989    0.0000 C.3     1  UNL1        0.0116
     16 C           6.1808   -1.9912    0.0000 C.3     1  UNL1       -0.0486
     17 C           9.7288    0.0572    0.0000 C.3     1  UNL1        0.0627
     18 C           4.3433   -2.0201    0.0000 C.3     1  UNL1       -0.0056
     19 C           4.3599    0.1353    0.0000 C.3     1  UNL1       -0.0447
     20 C           7.7056   -1.1880    0.0000 C.3     1  UNL1       -0.0588
     21 C           8.2709   -0.8616    0.0000 C.3     1  UNL1       -0.0586
     22 C           9.0329    2.6266    0.0000 C.3     1  UNL1       -0.0430
     23 C           5.2945    0.5712    0.0000 C.3     1  UNL1       -0.0590
     24 C           3.4037   -1.4776    0.0000 C.3     1  UNL1        0.0606
     25 C           7.9529    2.1060    0.0000 C.3     1  UNL1       -0.0586
     26 C           3.4120   -0.3927    0.0000 C.3     1  UNL1       -0.0258
     27 C          10.4911    1.7996    0.0000 C.2     1  UNL1       -0.0705
     28 C          10.0619    2.7419    0.0000 C.3     1  UNL1       -0.0311
     29 C           3.8467   -2.8881    0.0000 C.3     1  UNL1       -0.0572
     30 C           4.8466   -2.8842    0.0000 C.3     1  UNL1       -0.0572
     31 C          11.4712    1.6010    0.0000 C.2     1  UNL1       -0.0991
     32 H           6.9329    0.5031    0.0000 H       1  UNL1        0.0312
     33 H           8.6682    0.6587    0.0000 H       1  UNL1        0.0337
     34 H           5.2820   -2.3204    0.0000 H       1  UNL1        0.0312
     35 H           5.9847    1.6607    0.0000 H       1  UNL1        0.0293
     36 H           5.5862    0.9704    0.0000 H       1  UNL1        0.0293
     37 H           7.2969   -2.0438    0.0000 H       1  UNL1        0.0271
     38 H           7.6880   -1.3480    0.0000 H       1  UNL1        0.0271
     39 H           7.5997    1.8881    0.0000 H       1  UNL1        0.0596
     40 H           8.4182   -0.9264    0.0000 H       1  UNL1        0.0296
     41 H           9.2164   -0.9356    0.0000 H       1  UNL1        0.0296
     42 H          10.5071    0.7572    0.0000 H       1  UNL1        0.0376
     43 H           5.7835   -2.4672    0.0000 H       1  UNL1        0.0268
     44 H           6.5818   -2.4641    0.0000 H       1  UNL1        0.0268
     45 H          10.2664    0.3662    0.0000 H       1  UNL1        0.0599
     46 H           4.7681    0.6019    0.0000 H       1  UNL1        0.0271
     47 H           3.9700    0.6173    0.0000 H       1  UNL1        0.0271
     48 H           7.2306   -1.5865    0.0000 H       1  UNL1        0.0235
     49 H           8.1041   -1.6629    0.0000 H       1  UNL1        0.0235
     50 H           8.1805   -0.7895    0.0000 H       1  UNL1        0.0235
     51 H           7.6884   -1.0737    0.0000 H       1  UNL1        0.0235
     52 H           8.4830   -1.4442    0.0000 H       1  UNL1        0.0235
     53 H           8.8535   -0.6495    0.0000 H       1  UNL1        0.0235
     54 H           9.0290    3.2466    0.0000 H       1  UNL1        0.0274
     55 H           8.4159    2.6879    0.0000 H       1  UNL1        0.0274
     56 H           5.9145    0.5664    0.0000 H       1  UNL1        0.0235
     57 H           5.2993    1.1912    0.0000 H       1  UNL1        0.0235
     58 H           4.6745    0.5760    0.0000 H       1  UNL1        0.0235
     59 H           3.4025   -2.0976    0.0000 H       1  UNL1        0.0599
     60 H           8.2588    2.6453    0.0000 H       1  UNL1        0.0235
     61 H           7.4136    2.4119    0.0000 H       1  UNL1        0.0235
     62 H           7.6471    1.5667    0.0000 H       1  UNL1        0.0235
     63 H           3.2075    0.1926    0.0000 H       1  UNL1        0.0290
     64 H           2.8004   -0.4940    0.0000 H       1  UNL1        0.0290
     65 H          10.6500    2.9382    0.0000 H       1  UNL1        0.0310
     66 H           9.9285    3.3474    0.0000 H       1  UNL1        0.0310
     67 H           3.3085   -2.5801    0.0000 H       1  UNL1        0.0236
     68 H           3.5387   -3.4262    0.0000 H       1  UNL1        0.0236
     69 H           4.3848   -3.1960    0.0000 H       1  UNL1        0.0236
     70 H           4.3109   -3.1963    0.0000 H       1  UNL1        0.0236
     71 H           5.1587   -3.4199    0.0000 H       1  UNL1        0.0236
     72 H           5.3824   -2.5721    0.0000 H       1  UNL1        0.0236
     73 H           6.5259    2.8881    0.0000 H       1  UNL1        0.2098
     74 H          10.5905   -1.0661    0.0000 H       1  UNL1        0.2098
     75 H          11.6684    1.0131    0.0000 H       1  UNL1        0.0535
     76 H          11.8817    2.0656    0.0000 H       1  UNL1        0.0535
     77 H           2.0000   -1.6622    0.0000 H       1  UNL1        0.2098
@<TRIPOS>BOND
     1    13     1    1
     2     1    73    1
     3    17     2    1
     4     2    74    1
     5    24     3    1
     6     3    77    1
     7     4     5    1
     8     4     6    1
     9     4    12    1
    10     4    20    1
    11     5     7    1
    12     5    14    1
    13     5    21    1
    14     6     8    1
    15     6    11    1
    16     6    32    1
    17     7     9    1
    18     7    13    1
    19     7    33    1
    20     8    10    1
    21     8    19    1
    22     8    23    1
    23     9    15    1
    24     9    22    1
    25     9    25    1
    26    10    16    1
    27    10    18    1
    28    10    34    1
    29    11    13    1
    30    11    35    1
    31    11    36    1
    32    12    16    1
    33    12    37    1
    34    12    38    1
    35    13    39    1
    36    14    17    1
    37    14    40    1
    38    14    41    1
    39    15    17    1
    40    15    27    1
    41    15    42    1
    42    16    43    1
    43    16    44    1
    44    17    45    1
    45    18    24    1
    46    18    29    1
    47    18    30    1
    48    19    26    1
    49    19    46    1
    50    19    47    1
    51    20    48    1
    52    20    49    1
    53    20    50    1
    54    21    51    1
    55    21    52    1
    56    21    53    1
    57    22    28    1
    58    22    54    1
    59    22    55    1
    60    23    56    1
    61    23    57    1
    62    23    58    1
    63    24    26    1
    64    24    59    1
    65    25    60    1
    66    25    61    1
    67    25    62    1
    68    26    63    1
    69    26    64    1
    70    27    28    1
    71    27    31    2
    72    28    65    1
    73    28    66    1
    74    29    67    1
    75    29    68    1
    76    29    69    1
    77    30    70    1
    78    30    71    1
    79    30    72    1
    80    31    75    1
    81    31    76    1
