@<TRIPOS>MOLECULE
IMPHY004392
 36 36 0 0 0
SMALL
GASTEIGER

@<TRIPOS>ATOM
      1 O           4.2690    1.0000    0.0000 O.2     1  UNL1       -0.2708
      2 O           2.5369   -4.0000    0.0000 O.3     1  UNL1       -0.5033
      3 O           4.2690   -5.0000    0.0000 O.3     1  UNL1       -0.5033
      4 N           6.0010    1.0000    0.0000 N.am    1  UNL1       -0.3118
      5 N           7.7331    5.0000    0.0000 N.3     1  UNL1       -0.3300
      6 C           6.8671    2.5000    0.0000 C.3     1  UNL1       -0.0362
      7 C           6.8671    3.5000    0.0000 C.3     1  UNL1       -0.0392
      8 C           6.0010    2.0000    0.0000 C.3     1  UNL1        0.0119
      9 C           7.7331    4.0000    0.0000 C.3     1  UNL1       -0.0069
     10 C           5.1350    0.5000    0.0000 C.2     1  UNL1        0.2369
     11 C           4.2690   -2.0000    0.0000 C.ar    1  UNL1       -0.0212
     12 C           5.1350   -0.5000    0.0000 C.2     1  UNL1        0.0007
     13 C           4.2690   -1.0000    0.0000 C.2     1  UNL1       -0.0496
     14 C           3.4030   -2.5000    0.0000 C.ar    1  UNL1       -0.0094
     15 C           5.1350   -2.5000    0.0000 C.ar    1  UNL1       -0.0509
     16 C           3.4030   -3.5000    0.0000 C.ar    1  UNL1        0.1588
     17 C           5.1350   -3.5000    0.0000 C.ar    1  UNL1       -0.0160
     18 C           4.2690   -4.0000    0.0000 C.ar    1  UNL1        0.1582
     19 H           7.0791    1.9174    0.0000 H       1  UNL1        0.0281
     20 H           7.4776    2.6077    0.0000 H       1  UNL1        0.0281
     21 H           6.6550    4.0826    0.0000 H       1  UNL1        0.0278
     22 H           6.2565    3.3923    0.0000 H       1  UNL1        0.0278
     23 H           5.7890    2.5826    0.0000 H       1  UNL1        0.0462
     24 H           5.3905    1.8923    0.0000 H       1  UNL1        0.0462
     25 H           7.9451    3.4174    0.0000 H       1  UNL1        0.0422
     26 H           8.3437    4.1077    0.0000 H       1  UNL1        0.0422
     27 H           6.5380    0.6900    0.0000 H       1  UNL1        0.1490
     28 H           8.2700    5.3100    0.0000 H       1  UNL1        0.1182
     29 H           7.1962    5.3100    0.0000 H       1  UNL1        0.1182
     30 H           5.6720   -0.8100    0.0000 H       1  UNL1        0.0669
     31 H           3.7320   -0.6900    0.0000 H       1  UNL1        0.0625
     32 H           2.8660   -2.1900    0.0000 H       1  UNL1        0.0661
     33 H           5.6720   -2.1900    0.0000 H       1  UNL1        0.0625
     34 H           5.6720   -3.8100    0.0000 H       1  UNL1        0.0655
     35 H           2.0000   -3.6900    0.0000 H       1  UNL1        0.2923
     36 H           4.8059   -5.3100    0.0000 H       1  UNL1        0.2923
@<TRIPOS>BOND
     1     1    10    2
     2     2    16    1
     3     2    35    1
     4     3    18    1
     5     3    36    1
     6     4     8    1
     7     4    10   am
     8     4    27    1
     9     5     9    1
    10     5    28    1
    11     5    29    1
    12     6     7    1
    13     6     8    1
    14     6    19    1
    15     6    20    1
    16     7     9    1
    17     7    21    1
    18     7    22    1
    19     8    23    1
    20     8    24    1
    21     9    25    1
    22     9    26    1
    23    10    12    1
    24    11    13    1
    25    11    14   ar
    26    11    15   ar
    27    12    13    2
    28    12    30    1
    29    13    31    1
    30    14    16   ar
    31    14    32    1
    32    15    17   ar
    33    15    33    1
    34    16    18   ar
    35    17    18   ar
    36    17    34    1
