@<TRIPOS>MOLECULE
IMPHY013870
 24 23 0 0 0
SMALL
GASTEIGER

@<TRIPOS>ATOM
      1 O           5.4641    1.2500    0.0000 O.2     1  UNL1       -0.2890
      2 O           4.5981   -1.2500    0.0000 O.2     1  UNL1       -0.2890
      3 C           6.3301   -0.2500    0.0000 C.3     1  UNL1        0.0131
      4 C           3.7320    0.2500    0.0000 C.3     1  UNL1        0.0131
      5 C           7.1962    0.2500    0.0000 C.3     1  UNL1       -0.0488
      6 C           2.8660   -0.2500    0.0000 C.3     1  UNL1       -0.0488
      7 C           5.4641    0.2500    0.0000 C.2     1  UNL1        0.1981
      8 C           4.5981   -0.2500    0.0000 C.2     1  UNL1        0.1981
      9 C           8.0622   -0.2500    0.0000 C.3     1  UNL1       -0.0649
     10 C           2.0000    0.2500    0.0000 C.3     1  UNL1       -0.0649
     11 H           5.9316   -0.7249    0.0000 H       1  UNL1        0.0346
     12 H           6.7287   -0.7249    0.0000 H       1  UNL1        0.0346
     13 H           4.1306    0.7249    0.0000 H       1  UNL1        0.0346
     14 H           3.3335    0.7249    0.0000 H       1  UNL1        0.0346
     15 H           7.5947    0.7249    0.0000 H       1  UNL1        0.0267
     16 H           6.7976    0.7249    0.0000 H       1  UNL1        0.0267
     17 H           2.4675   -0.7249    0.0000 H       1  UNL1        0.0267
     18 H           3.2646   -0.7249    0.0000 H       1  UNL1        0.0267
     19 H           7.7522   -0.7869    0.0000 H       1  UNL1        0.0230
     20 H           8.5991   -0.5600    0.0000 H       1  UNL1        0.0230
     21 H           8.3722    0.2869    0.0000 H       1  UNL1        0.0230
     22 H           2.3100    0.7869    0.0000 H       1  UNL1        0.0230
     23 H           1.4631    0.5600    0.0000 H       1  UNL1        0.0230
     24 H           1.6900   -0.2869    0.0000 H       1  UNL1        0.0230
@<TRIPOS>BOND
     1     1     7    2
     2     2     8    2
     3     3     5    1
     4     3     7    1
     5     3    11    1
     6     3    12    1
     7     4     6    1
     8     4     8    1
     9     4    13    1
    10     4    14    1
    11     5     9    1
    12     5    15    1
    13     5    16    1
    14     6    10    1
    15     6    17    1
    16     6    18    1
    17     7     8    1
    18     9    19    1
    19     9    20    1
    20     9    21    1
    21    10    22    1
    22    10    23    1
    23    10    24    1
