@<TRIPOS>MOLECULE
IMPHY004567
 56 57 0 0 0
SMALL
GASTEIGER

@<TRIPOS>ATOM
      1 O           3.4030    0.9050    0.0000 O.3     1  UNL1       -0.5063
      2 O           6.8671    0.9050    0.0000 O.3     1  UNL1       -0.5063
      3 O           2.5369   -3.5950    0.0000 O.3     1  UNL1       -0.5061
      4 O           4.2690   -6.5950    0.0000 O.3     1  UNL1       -0.5066
      5 C           6.8671    3.9050    0.0000 C.3     1  UNL1       -0.0286
      6 C           6.0010    3.4050    0.0000 C.2     1  UNL1       -0.0759
      7 C           5.1350    1.9050    0.0000 C.3     1  UNL1       -0.0023
      8 C           6.8671    4.9050    0.0000 C.3     1  UNL1       -0.0308
      9 C           5.1350    0.9050    0.0000 C.ar    1  UNL1        0.0391
     10 C           6.0010    2.4050    0.0000 C.2     1  UNL1       -0.0805
     11 C           4.2690    0.4050    0.0000 C.ar    1  UNL1        0.1243
     12 C           6.0010    0.4050    0.0000 C.ar    1  UNL1        0.1243
     13 C           5.1350    3.9050    0.0000 C.3     1  UNL1       -0.0438
     14 C           7.7331    5.4050    0.0000 C.2     1  UNL1       -0.0850
     15 C           5.1350   -1.0950    0.0000 C.ar    1  UNL1       -0.0181
     16 C           4.2690   -0.5950    0.0000 C.ar    1  UNL1       -0.0125
     17 C           6.0010   -0.5950    0.0000 C.ar    1  UNL1       -0.0125
     18 C           7.7331    6.4050    0.0000 C.2     1  UNL1       -0.0796
     19 C           5.1350   -2.0950    0.0000 C.2     1  UNL1       -0.0537
     20 C           8.5991    6.9050    0.0000 C.3     1  UNL1       -0.0440
     21 C           6.8671    6.9050    0.0000 C.3     1  UNL1       -0.0440
     22 C           4.2690   -2.5950    0.0000 C.2     1  UNL1       -0.0505
     23 C           4.2690   -3.5950    0.0000 C.ar    1  UNL1        0.0167
     24 C           3.4030   -4.0950    0.0000 C.ar    1  UNL1        0.1274
     25 C           5.1350   -4.0950    0.0000 C.ar    1  UNL1       -0.0477
     26 C           3.4030   -5.0950    0.0000 C.ar    1  UNL1        0.0219
     27 C           5.1350   -5.0950    0.0000 C.ar    1  UNL1       -0.0194
     28 C           4.2690   -5.5950    0.0000 C.ar    1  UNL1        0.1204
     29 H           7.0791    3.3224    0.0000 H       1  UNL1        0.0313
     30 H           7.4776    4.0127    0.0000 H       1  UNL1        0.0313
     31 H           4.9230    2.4876    0.0000 H       1  UNL1        0.0358
     32 H           4.5244    1.7973    0.0000 H       1  UNL1        0.0358
     33 H           6.6550    5.4876    0.0000 H       1  UNL1        0.0310
     34 H           6.2565    4.7973    0.0000 H       1  UNL1        0.0310
     35 H           6.5380    2.0950    0.0000 H       1  UNL1        0.0575
     36 H           5.4450    4.4419    0.0000 H       1  UNL1        0.0274
     37 H           4.5981    4.2150    0.0000 H       1  UNL1        0.0274
     38 H           4.8250    3.3681    0.0000 H       1  UNL1        0.0274
     39 H           8.2700    5.0950    0.0000 H       1  UNL1        0.0572
     40 H           3.7320   -0.9050    0.0000 H       1  UNL1        0.0660
     41 H           6.5380   -0.9050    0.0000 H       1  UNL1        0.0660
     42 H           5.6720   -2.4050    0.0000 H       1  UNL1        0.0624
     43 H           7.1771    7.4419    0.0000 H       1  UNL1        0.0274
     44 H           6.3301    7.2150    0.0000 H       1  UNL1        0.0274
     45 H           6.5571    6.3681    0.0000 H       1  UNL1        0.0274
     46 H           8.9091    6.3681    0.0000 H       1  UNL1        0.0274
     47 H           9.1360    7.2150    0.0000 H       1  UNL1        0.0274
     48 H           8.2891    7.4419    0.0000 H       1  UNL1        0.0274
     49 H           3.7320   -2.2850    0.0000 H       1  UNL1        0.0625
     50 H           2.8660    0.5950    0.0000 H       1  UNL1        0.2921
     51 H           7.4040    0.5950    0.0000 H       1  UNL1        0.2921
     52 H           5.6720   -3.7850    0.0000 H       1  UNL1        0.0626
     53 H           2.8660   -5.4050    0.0000 H       1  UNL1        0.0691
     54 H           5.6720   -5.4050    0.0000 H       1  UNL1        0.0654
     55 H           2.0000   -3.9050    0.0000 H       1  UNL1        0.2922
     56 H           4.8059   -6.9050    0.0000 H       1  UNL1        0.2921
@<TRIPOS>BOND
     1     1    11    1
     2     1    50    1
     3     2    12    1
     4     2    51    1
     5     3    24    1
     6     3    55    1
     7     4    28    1
     8     4    56    1
     9     5     6    1
    10     5     8    1
    11     5    29    1
    12     5    30    1
    13     6    10    2
    14     6    13    1
    15     7     9    1
    16     7    10    1
    17     7    31    1
    18     7    32    1
    19     8    14    1
    20     8    33    1
    21     8    34    1
    22     9    11   ar
    23     9    12   ar
    24    10    35    1
    25    11    16   ar
    26    12    17   ar
    27    13    36    1
    28    13    37    1
    29    13    38    1
    30    14    18    2
    31    14    39    1
    32    15    16   ar
    33    15    17   ar
    34    15    19    1
    35    16    40    1
    36    17    41    1
    37    18    20    1
    38    18    21    1
    39    19    22    2
    40    19    42    1
    41    20    46    1
    42    20    47    1
    43    20    48    1
    44    21    43    1
    45    21    44    1
    46    21    45    1
    47    22    23    1
    48    22    49    1
    49    23    24   ar
    50    23    25   ar
    51    24    26   ar
    52    25    27   ar
    53    25    52    1
    54    26    28   ar
    55    26    53    1
    56    27    28   ar
    57    27    54    1
