@<TRIPOS>MOLECULE
IMPHY006602
 27 27 0 0 0
SMALL
GASTEIGER

@<TRIPOS>ATOM
      1 O           6.3301    1.5950    0.0000 O.3     1  UNL1       -0.4913
      2 O           2.8660    1.5950    0.0000 O.3     1  UNL1       -0.4913
      3 O           4.5981    2.5950    0.0000 O.3     1  UNL1       -0.5009
      4 O           3.7320   -1.9050    0.0000 O.3     1  UNL1       -0.4644
      5 O           5.4641   -1.9050    0.0000 O.2     1  UNL1       -0.2450
      6 C           4.5981   -0.4050    0.0000 C.ar    1  UNL1        0.0661
      7 C           5.4641    1.0950    0.0000 C.ar    1  UNL1        0.1658
      8 C           3.7320    1.0950    0.0000 C.ar    1  UNL1        0.1658
      9 C           4.5981    1.5950    0.0000 C.ar    1  UNL1        0.2011
     10 C           5.4641    0.0950    0.0000 C.ar    1  UNL1       -0.0021
     11 C           3.7320    0.0950    0.0000 C.ar    1  UNL1       -0.0021
     12 C           4.5981   -1.4050    0.0000 C.2     1  UNL1        0.3392
     13 C           7.1962    1.0950    0.0000 C.3     1  UNL1        0.0790
     14 C           2.0000    1.0950    0.0000 C.3     1  UNL1        0.0790
     15 C           3.7320   -2.9050    0.0000 C.3     1  UNL1        0.0820
     16 H           6.0010   -0.2150    0.0000 H       1  UNL1        0.0663
     17 H           3.1951   -0.2150    0.0000 H       1  UNL1        0.0663
     18 H           5.1350    2.9050    0.0000 H       1  UNL1        0.2924
     19 H           6.8862    0.5581    0.0000 H       1  UNL1        0.0660
     20 H           7.7331    0.7850    0.0000 H       1  UNL1        0.0660
     21 H           7.5062    1.6319    0.0000 H       1  UNL1        0.0660
     22 H           1.6900    1.6319    0.0000 H       1  UNL1        0.0660
     23 H           1.4631    0.7850    0.0000 H       1  UNL1        0.0660
     24 H           2.3100    0.5581    0.0000 H       1  UNL1        0.0660
     25 H           3.1120   -2.9050    0.0000 H       1  UNL1        0.0661
     26 H           3.7320   -3.5250    0.0000 H       1  UNL1        0.0661
     27 H           4.3520   -2.9050    0.0000 H       1  UNL1        0.0661
@<TRIPOS>BOND
     1     1     7    1
     2     1    13    1
     3     2     8    1
     4     2    14    1
     5     3     9    1
     6     3    18    1
     7     4    12    1
     8     4    15    1
     9     5    12    2
    10     6    10   ar
    11     6    11   ar
    12     6    12    1
    13     7     9   ar
    14     7    10   ar
    15     8     9   ar
    16     8    11   ar
    17    10    16    1
    18    11    17    1
    19    13    19    1
    20    13    20    1
    21    13    21    1
    22    14    22    1
    23    14    23    1
    24    14    24    1
    25    15    25    1
    26    15    26    1
    27    15    27    1
