@<TRIPOS>MOLECULE
IMPHY000818
 36 37 0 0 0
SMALL
GASTEIGER

@<TRIPOS>ATOM
      1 O           4.2690   -0.1550    0.0000 O.3     1  UNL1       -0.3313
      2 O           6.0010   -0.1550    0.0000 O.3     1  UNL1       -0.4606
      3 O           4.2690   -3.1550    0.0000 O.3     1  UNL1       -0.3864
      4 O           2.5369   -2.1550    0.0000 O.3     1  UNL1       -0.3865
      5 O           6.0010   -2.1550    0.0000 O.3     1  UNL1       -0.3829
      6 O           2.5369    0.8450    0.0000 O.3     1  UNL1       -0.3924
      7 O           4.2690    2.8450    0.0000 O.3     1  UNL1       -0.5065
      8 O           7.7331    2.8450    0.0000 O.3     1  UNL1       -0.5065
      9 C           4.2690   -2.1550    0.0000 C.3     1  UNL1        0.1152
     10 C           3.4030   -1.6550    0.0000 C.3     1  UNL1        0.1120
     11 C           5.1350   -1.6550    0.0000 C.3     1  UNL1        0.1454
     12 C           3.4030   -0.6550    0.0000 C.3     1  UNL1        0.1140
     13 C           5.1350   -0.6550    0.0000 C.3     1  UNL1        0.2308
     14 C           2.5369   -0.1550    0.0000 C.3     1  UNL1        0.0731
     15 C           6.0010    0.8450    0.0000 C.ar    1  UNL1        0.1309
     16 C           6.8671    1.3450    0.0000 C.ar    1  UNL1        0.0219
     17 C           5.1350    1.3450    0.0000 C.ar    1  UNL1        0.0219
     18 C           5.1350    2.3450    0.0000 C.ar    1  UNL1        0.1238
     19 C           6.8671    2.3450    0.0000 C.ar    1  UNL1        0.1238
     20 C           6.0010    2.8450    0.0000 C.ar    1  UNL1        0.0215
     21 H           3.7320   -2.4650    0.0000 H       1  UNL1        0.0648
     22 H           3.4030   -2.2750    0.0000 H       1  UNL1        0.0647
     23 H           5.1350   -2.2750    0.0000 H       1  UNL1        0.0683
     24 H           3.4030   -0.0350    0.0000 H       1  UNL1        0.0647
     25 H           5.1350   -0.0350    0.0000 H       1  UNL1        0.1084
     26 H           1.9264   -0.0473    0.0000 H       1  UNL1        0.0584
     27 H           2.3249   -0.7376    0.0000 H       1  UNL1        0.0584
     28 H           3.7320   -3.4650    0.0000 H       1  UNL1        0.2100
     29 H           2.0000   -1.8450    0.0000 H       1  UNL1        0.2100
     30 H           6.5380   -1.8450    0.0000 H       1  UNL1        0.2102
     31 H           2.0000    1.1550    0.0000 H       1  UNL1        0.2095
     32 H           7.4040    1.0350    0.0000 H       1  UNL1        0.0691
     33 H           4.5981    1.0350    0.0000 H       1  UNL1        0.0691
     34 H           6.0010    3.4650    0.0000 H       1  UNL1        0.0691
     35 H           4.2690    3.4650    0.0000 H       1  UNL1        0.2921
     36 H           7.7331    3.4650    0.0000 H       1  UNL1        0.2921
@<TRIPOS>BOND
     1     1    12    1
     2     1    13    1
     3    13     2    1
     4     2    15    1
     5     9     3    1
     6     3    28    1
     7    10     4    1
     8     4    29    1
     9    11     5    1
    10     5    30    1
    11     6    14    1
    12     6    31    1
    13     7    18    1
    14     7    35    1
    15     8    19    1
    16     8    36    1
    17     9    10    1
    18     9    11    1
    19     9    21    1
    20    10    12    1
    21    10    22    1
    22    11    13    1
    23    11    23    1
    24    12    14    1
    25    12    24    1
    26    13    25    1
    27    14    26    1
    28    14    27    1
    29    15    16   ar
    30    15    17   ar
    31    16    19   ar
    32    16    32    1
    33    17    18   ar
    34    17    33    1
    35    18    20   ar
    36    19    20   ar
    37    20    34    1
