@<TRIPOS>MOLECULE
IMPHY007745
 41 44 0 0 0
SMALL
GASTEIGER

@<TRIPOS>ATOM
      1 O           3.9061   -0.9226    0.0000 O.3     1  UNL1       -0.4814
      2 O           7.4260   -0.9226    0.0000 O.2     1  UNL1       -0.4544
      3 O           5.6660    2.1121    0.0000 O.3     1  UNL1       -0.5052
      4 O           7.4144    2.1467    0.0000 O.2     1  UNL1       -0.2869
      5 O          11.7884   -2.4221    0.0000 O.3     1  UNL1       -0.5068
      6 C           3.0000   -0.4087    0.0000 C.3     1  UNL1        0.1235
      7 C           4.8000    0.6121    0.0000 C.ar    1  UNL1        0.0588
      8 C           4.8000   -0.3879    0.0000 C.ar    1  UNL1        0.1359
      9 C           3.0000    0.6329    0.0000 C.2     1  UNL1       -0.0408
     10 C           2.0000   -0.4126    0.0000 C.3     1  UNL1       -0.0215
     11 C           2.5033   -1.2767    0.0000 C.3     1  UNL1       -0.0215
     12 C           3.9061    1.1467    0.0000 C.2     1  UNL1       -0.0478
     13 C           6.5320    0.6121    0.0000 C.ar    1  UNL1        0.1061
     14 C           5.6660    1.1121    0.0000 C.ar    1  UNL1        0.1418
     15 C           6.5320   -0.3879    0.0000 C.ar    1  UNL1        0.1463
     16 C           5.6660   -0.8879    0.0000 C.ar    1  UNL1        0.0240
     17 C           7.4260    1.1467    0.0000 C.ar    1  UNL1        0.1966
     18 C           8.3321   -0.4087    0.0000 C.ar    1  UNL1        0.1392
     19 C           8.3321    0.6329    0.0000 C.ar    1  UNL1        0.0288
     20 C           9.1962   -0.9121    0.0000 C.ar    1  UNL1        0.0176
     21 C           9.1923   -1.9121    0.0000 C.ar    1  UNL1       -0.0476
     22 C          10.0641   -0.4154    0.0000 C.ar    1  UNL1       -0.0476
     23 C          10.0564   -2.4154    0.0000 C.ar    1  UNL1       -0.0195
     24 C          10.9282   -0.9188    0.0000 C.ar    1  UNL1       -0.0195
     25 C          10.9243   -1.9187    0.0000 C.ar    1  UNL1        0.1169
     26 H           2.4643    0.9450    0.0000 H       1  UNL1        0.0611
     27 H           3.9132    1.7667    0.0000 H       1  UNL1        0.0624
     28 H           1.9976    0.2074    0.0000 H       1  UNL1        0.0271
     29 H           1.3800   -0.4150    0.0000 H       1  UNL1        0.0271
     30 H           1.9652   -0.9688    0.0000 H       1  UNL1        0.0271
     31 H           2.1954   -1.8148    0.0000 H       1  UNL1        0.0271
     32 H           3.0415   -1.5846    0.0000 H       1  UNL1        0.0271
     33 H           2.0024   -1.0326    0.0000 H       1  UNL1        0.0271
     34 H           5.6660   -1.5079    0.0000 H       1  UNL1        0.0691
     35 H           8.8678    0.9450    0.0000 H       1  UNL1        0.0693
     36 H           5.1291    2.4221    0.0000 H       1  UNL1        0.2922
     37 H           8.6542   -2.2200    0.0000 H       1  UNL1        0.0626
     38 H          10.0665    0.2046    0.0000 H       1  UNL1        0.0626
     39 H          10.0540   -3.0354    0.0000 H       1  UNL1        0.0654
     40 H          11.4663   -0.6108    0.0000 H       1  UNL1        0.0654
     41 H          12.3266   -2.1142    0.0000 H       1  UNL1        0.2921
@<TRIPOS>BOND
     1     1     6    1
     2     1     8    1
     3     2    15   ar
     4     2    18   ar
     5     3    14    1
     6     3    36    1
     7     4    17    2
     8     5    25    1
     9     5    41    1
    10     6     9    1
    11     6    10    1
    12     6    11    1
    13     7     8   ar
    14     7    12    1
    15     7    14   ar
    16     8    16   ar
    17     9    12    2
    18     9    26    1
    19    10    28    1
    20    10    29    1
    21    10    33    1
    22    11    30    1
    23    11    31    1
    24    11    32    1
    25    12    27    1
    26    13    14   ar
    27    13    15   ar
    28    13    17   ar
    29    15    16   ar
    30    16    34    1
    31    17    19   ar
    32    18    19   ar
    33    18    20    1
    34    19    35    1
    35    20    21   ar
    36    20    22   ar
    37    21    23   ar
    38    21    37    1
    39    22    24   ar
    40    22    38    1
    41    23    25   ar
    42    23    39    1
    43    24    25   ar
    44    24    40    1
