@<TRIPOS>MOLECULE
IMPHY005992
 24 23 0 0 0
SMALL
GASTEIGER

@<TRIPOS>ATOM
      1 O           3.7320    1.1900    0.0000 O.3     1  UNL1       -0.4607
      2 O           2.8660   -0.3100    0.0000 O.2     1  UNL1       -0.2512
      3 C           6.3301   -0.3100    0.0000 C.3     1  UNL1       -0.0349
      4 C           7.1962   -0.8100    0.0000 C.3     1  UNL1       -0.0525
      5 C           6.3301    0.6900    0.0000 C.2     1  UNL1       -0.0848
      6 C           7.1962   -1.8100    0.0000 C.3     1  UNL1       -0.0650
      7 C           5.4641    1.1900    0.0000 C.2     1  UNL1       -0.0510
      8 C           4.5981    0.6900    0.0000 C.3     1  UNL1        0.1107
      9 C           2.8660    0.6900    0.0000 C.2     1  UNL1        0.3042
     10 C           2.0000    1.1900    0.0000 C.3     1  UNL1        0.0332
     11 H           5.7196   -0.2023    0.0000 H       1  UNL1        0.0307
     12 H           6.1181   -0.8926    0.0000 H       1  UNL1        0.0307
     13 H           7.8067   -0.9177    0.0000 H       1  UNL1        0.0266
     14 H           7.4082   -0.2274    0.0000 H       1  UNL1        0.0266
     15 H           6.8671    1.0000    0.0000 H       1  UNL1        0.0570
     16 H           6.5762   -1.8100    0.0000 H       1  UNL1        0.0230
     17 H           7.1962   -2.4300    0.0000 H       1  UNL1        0.0230
     18 H           7.8162   -1.8100    0.0000 H       1  UNL1        0.0230
     19 H           5.4641    1.8100    0.0000 H       1  UNL1        0.0602
     20 H           4.1996    0.2151    0.0000 H       1  UNL1        0.0743
     21 H           4.9966    0.2151    0.0000 H       1  UNL1        0.0743
     22 H           2.3100    1.7269    0.0000 H       1  UNL1        0.0342
     23 H           1.4631    1.5000    0.0000 H       1  UNL1        0.0342
     24 H           1.6900    0.6531    0.0000 H       1  UNL1        0.0342
@<TRIPOS>BOND
     1     1     8    1
     2     1     9    1
     3     2     9    2
     4     3     4    1
     5     3     5    1
     6     3    11    1
     7     3    12    1
     8     4     6    1
     9     4    13    1
    10     4    14    1
    11     5     7    2
    12     5    15    1
    13     6    16    1
    14     6    17    1
    15     6    18    1
    16     7     8    1
    17     7    19    1
    18     8    20    1
    19     8    21    1
    20     9    10    1
    21    10    22    1
    22    10    23    1
    23    10    24    1
