@<TRIPOS>MOLECULE
IMPHY008268
 142 148 0 0 0
SMALL
GASTEIGER

@<TRIPOS>ATOM
      1 O           6.0010   -4.5903    0.0000 O.3     1  UNL1       -0.3422
      2 O          10.9838    2.5701    0.0000 O.3     1  UNL1       -0.3449
      3 O          10.4510   -0.4120    0.0000 O.2     1  UNL1       -0.3004
      4 O           4.2690   -4.5903    0.0000 O.3     1  UNL1       -0.3405
      5 O          12.2685    1.4084    0.0000 O.3     1  UNL1       -0.3461
      6 O          12.3252    4.0535    0.0000 O.3     1  UNL1       -0.3378
      7 O           6.0010   -6.5903    0.0000 O.3     1  UNL1       -0.3841
      8 O           4.2690   -7.5903    0.0000 O.3     1  UNL1       -0.3864
      9 O          14.2806    3.6336    0.0000 O.3     1  UNL1       -0.3864
     10 O           2.5369   -6.5903    0.0000 O.3     1  UNL1       -0.3865
     11 O          14.8946    1.7301    0.0000 O.3     1  UNL1       -0.3869
     12 O          13.9736    4.5853    0.0000 O.3     1  UNL1       -0.3405
     13 O           2.5369   -3.5903    0.0000 O.3     1  UNL1       -0.3924
     14 O          11.7112    5.9570    0.0000 O.3     1  UNL1       -0.3841
     15 O          13.0526    7.4404    0.0000 O.3     1  UNL1       -0.3864
     16 O          15.0080    7.0204    0.0000 O.3     1  UNL1       -0.3865
     17 O          15.9290    4.1653    0.0000 O.3     1  UNL1       -0.3924
     18 C           7.1630   -0.3118    0.0000 C.3     1  UNL1       -0.0227
     19 C           6.4951   -1.0561    0.0000 C.3     1  UNL1       -0.0232
     20 C           8.1415   -0.5180    0.0000 C.3     1  UNL1       -0.0228
     21 C           6.8058   -2.0066    0.0000 C.3     1  UNL1       -0.0297
     22 C           8.8490    0.2464    0.0000 C.3     1  UNL1        0.0327
     23 C           8.5330    1.2390    0.0000 C.3     1  UNL1       -0.0212
     24 C           6.0010   -2.5903    0.0000 C.3     1  UNL1       -0.0087
     25 C           6.8241    0.6732    0.0000 C.3     1  UNL1       -0.0465
     26 C           8.4521   -1.4686    0.0000 C.3     1  UNL1       -0.0485
     27 C           5.5010   -1.0604    0.0000 C.3     1  UNL1       -0.0465
     28 C           7.7843   -2.2129    0.0000 C.3     1  UNL1       -0.0491
     29 C           7.5138    1.4538    0.0000 C.3     1  UNL1       -0.0482
     30 C           5.1963   -2.0066    0.0000 C.3     1  UNL1       -0.0468
     31 C           9.2514    2.0521    0.0000 C.3     1  UNL1       -0.0048
     32 C           9.9052   -0.0018    0.0000 C.3     1  UNL1       -0.0380
     33 C           6.3140    0.2166    0.0000 C.3     1  UNL1       -0.0588
     34 C           5.8781   -0.2692    0.0000 C.3     1  UNL1       -0.0588
     35 C           6.0010   -3.5903    0.0000 C.3     1  UNL1        0.0732
     36 C          10.3131    1.8284    0.0000 C.3     1  UNL1        0.0672
     37 C          10.6422    0.7945    0.0000 C.3     1  UNL1       -0.0251
     38 C           9.4599   -0.5453    0.0000 C.2     1  UNL1        0.1270
     39 C           9.4538    3.0314    0.0000 C.3     1  UNL1       -0.0572
     40 C           8.5045    2.7171    0.0000 C.3     1  UNL1       -0.0572
     41 C           7.0010   -3.5903    0.0000 C.3     1  UNL1       -0.0202
     42 C           5.0010   -3.5903    0.0000 C.3     1  UNL1       -0.0354
     43 C           7.5010   -4.4563    0.0000 C.3     1  UNL1       -0.0319
     44 C           5.1350   -5.0903    0.0000 C.3     1  UNL1        0.1885
     45 C          11.9615    2.3601    0.0000 C.3     1  UNL1        0.1882
     46 C           5.1350   -6.0903    0.0000 C.3     1  UNL1        0.1341
     47 C          12.6322    3.1018    0.0000 C.3     1  UNL1        0.1406
     48 C           8.5010   -4.4563    0.0000 C.2     1  UNL1       -0.0852
     49 C           4.2690   -6.5903    0.0000 C.3     1  UNL1        0.1141
     50 C          13.6099    2.8918    0.0000 C.3     1  UNL1        0.1141
     51 C           3.4030   -5.0903    0.0000 C.3     1  UNL1        0.1130
     52 C           3.4030   -6.0903    0.0000 C.3     1  UNL1        0.1119
     53 C          13.2462    1.1984    0.0000 C.3     1  UNL1        0.0792
     54 C          13.9169    1.9401    0.0000 C.3     1  UNL1        0.1069
     55 C           9.0010   -5.3223    0.0000 C.2     1  UNL1       -0.0796
     56 C           2.5369   -4.5903    0.0000 C.3     1  UNL1        0.0730
     57 C          12.9959    4.7952    0.0000 C.3     1  UNL1        0.1885
     58 C          10.0010   -5.3223    0.0000 C.3     1  UNL1       -0.0440
     59 C           8.5010   -6.1883    0.0000 C.3     1  UNL1       -0.0440
     60 C          12.6889    5.7470    0.0000 C.3     1  UNL1        0.1341
     61 C          13.3596    6.4887    0.0000 C.3     1  UNL1        0.1141
     62 C          14.6443    5.3270    0.0000 C.3     1  UNL1        0.1130
     63 C          14.3373    6.2787    0.0000 C.3     1  UNL1        0.1119
     64 C          15.6220    5.1170    0.0000 C.3     1  UNL1        0.0730
     65 H           8.9718   -0.6997    0.0000 H       1  UNL1        0.0316
     66 H           6.9828   -2.8380    0.0000 H       1  UNL1        0.0310
     67 H           8.2658    2.0459    0.0000 H       1  UNL1        0.0316
     68 H           5.2438   -2.9765    0.0000 H       1  UNL1        0.0331
     69 H           6.4366    1.1571    0.0000 H       1  UNL1        0.0271
     70 H           6.2810    0.3741    0.0000 H       1  UNL1        0.0271
     71 H           8.8347   -1.9565    0.0000 H       1  UNL1        0.0268
     72 H           8.9990   -1.1766    0.0000 H       1  UNL1        0.0268
     73 H           5.5635   -0.4436    0.0000 H       1  UNL1        0.0271
     74 H           4.8942   -0.9334    0.0000 H       1  UNL1        0.0271
     75 H           7.5530   -2.7881    0.0000 H       1  UNL1        0.0268
     76 H           8.3106   -2.5405    0.0000 H       1  UNL1        0.0268
     77 H           7.7436    2.0296    0.0000 H       1  UNL1        0.0269
     78 H           6.9857    1.7787    0.0000 H       1  UNL1        0.0269
     79 H           4.6294   -1.7556    0.0000 H       1  UNL1        0.0269
     80 H           4.8871   -2.5440    0.0000 H       1  UNL1        0.0269
     81 H           9.6622   -0.5722    0.0000 H       1  UNL1        0.0276
     82 H          10.4256   -0.3389    0.0000 H       1  UNL1        0.0276
     83 H           6.6416    0.7430    0.0000 H       1  UNL1        0.0235
     84 H           5.7876    0.5443    0.0000 H       1  UNL1        0.0235
     85 H           5.9864   -0.3097    0.0000 H       1  UNL1        0.0235
     86 H           6.3660    0.1134    0.0000 H       1  UNL1        0.0235
     87 H           5.4955    0.2187    0.0000 H       1  UNL1        0.0235
     88 H           5.3902   -0.6517    0.0000 H       1  UNL1        0.0235
     89 H          10.9190    1.6970    0.0000 H       1  UNL1        0.0602
     90 H          11.0184    0.3017    0.0000 H       1  UNL1        0.0291
     91 H          11.1921    1.0809    0.0000 H       1  UNL1        0.0291
     92 H           9.2243   -1.1187    0.0000 H       1  UNL1        0.1032
     93 H          10.0610    2.9059    0.0000 H       1  UNL1        0.0236
     94 H           8.9168    3.1801    0.0000 H       1  UNL1        0.0236
     95 H           8.0414    3.1294    0.0000 H       1  UNL1        0.0236
     96 H           9.5793    3.6386    0.0000 H       1  UNL1        0.0236
     97 H           8.8467    3.1569    0.0000 H       1  UNL1        0.0236
     98 H           8.0922    2.2540    0.0000 H       1  UNL1        0.0236
     99 H           7.5836   -3.3782    0.0000 H       1  UNL1        0.0296
    100 H           6.8934   -2.9797    0.0000 H       1  UNL1        0.0296
    101 H           5.0010   -2.9703    0.0000 H       1  UNL1        0.0257
    102 H           4.3810   -3.5903    0.0000 H       1  UNL1        0.0257
    103 H           5.0010   -4.2103    0.0000 H       1  UNL1        0.0257
    104 H           6.9184   -4.6683    0.0000 H       1  UNL1        0.0308
    105 H           7.6087   -5.0669    0.0000 H       1  UNL1        0.0308
    106 H           5.1350   -4.4703    0.0000 H       1  UNL1        0.0938
    107 H          11.7711    2.9502    0.0000 H       1  UNL1        0.0937
    108 H           5.1350   -6.7103    0.0000 H       1  UNL1        0.0671
    109 H          13.0480    3.5617    0.0000 H       1  UNL1        0.0675
    110 H           8.8110   -3.9194    0.0000 H       1  UNL1        0.0571
    111 H           3.7320   -6.9003    0.0000 H       1  UNL1        0.0648
    112 H          14.2161    2.7616    0.0000 H       1  UNL1        0.0648
    113 H           3.4030   -4.4703    0.0000 H       1  UNL1        0.0647
    114 H           2.8660   -5.7803    0.0000 H       1  UNL1        0.0647
    115 H          13.0127    0.6240    0.0000 H       1  UNL1        0.0587
    116 H          13.7713    0.8687    0.0000 H       1  UNL1        0.0587
    117 H          14.1072    1.3500    0.0000 H       1  UNL1        0.0643
    118 H           6.0010   -7.2103    0.0000 H       1  UNL1        0.2101
    119 H           1.9264   -4.4826    0.0000 H       1  UNL1        0.0584
    120 H           2.3249   -5.1729    0.0000 H       1  UNL1        0.0584
    121 H          12.3897    4.9254    0.0000 H       1  UNL1        0.0938
    122 H           3.7320   -7.9003    0.0000 H       1  UNL1        0.2100
    123 H          14.8868    3.5034    0.0000 H       1  UNL1        0.2100
    124 H           7.9641   -5.8783    0.0000 H       1  UNL1        0.0274
    125 H           8.1910   -6.7253    0.0000 H       1  UNL1        0.0274
    126 H           9.0380   -6.4983    0.0000 H       1  UNL1        0.0274
    127 H          10.0010   -5.9423    0.0000 H       1  UNL1        0.0274
    128 H          10.6210   -5.3223    0.0000 H       1  UNL1        0.0274
    129 H          10.0010   -4.7023    0.0000 H       1  UNL1        0.0274
    130 H           2.0000   -6.2803    0.0000 H       1  UNL1        0.2100
    131 H          15.0849    1.1401    0.0000 H       1  UNL1        0.2100
    132 H          12.4986    6.3370    0.0000 H       1  UNL1        0.0671
    133 H           2.0000   -3.2803    0.0000 H       1  UNL1        0.2095
    134 H          13.7754    6.9486    0.0000 H       1  UNL1        0.0648
    135 H          14.8346    4.7369    0.0000 H       1  UNL1        0.0647
    136 H          14.9435    6.1485    0.0000 H       1  UNL1        0.0647
    137 H          11.5208    6.5470    0.0000 H       1  UNL1        0.2101
    138 H          16.2361    5.2020    0.0000 H       1  UNL1        0.0584
    139 H          15.6450    5.7366    0.0000 H       1  UNL1        0.0584
    140 H          13.4684    7.9003    0.0000 H       1  UNL1        0.2100
    141 H          15.6142    6.8902    0.0000 H       1  UNL1        0.2100
    142 H          16.5352    4.0351    0.0000 H       1  UNL1        0.2095
@<TRIPOS>BOND
     1    35     1    1
     2    44     1    1
     3    36     2    1
     4    45     2    1
     5     3    38    2
     6     4    44    1
     7     4    51    1
     8     5    45    1
     9     5    53    1
    10    47     6    1
    11    57     6    1
    12    46     7    1
    13     7   118    1
    14    49     8    1
    15     8   122    1
    16    50     9    1
    17     9   123    1
    18    52    10    1
    19    10   130    1
    20    54    11    1
    21    11   131    1
    22    12    57    1
    23    12    62    1
    24    13    56    1
    25    13   133    1
    26    60    14    1
    27    14   137    1
    28    61    15    1
    29    15   140    1
    30    63    16    1
    31    16   141    1
    32    17    64    1
    33    17   142    1
    34    18    19    1
    35    18    20    1
    36    18    25    1
    37    18    33    1
    38    19    21    1
    39    19    27    1
    40    19    34    1
    41    20    22    1
    42    20    26    1
    43    20    65    1
    44    21    24    1
    45    21    28    1
    46    21    66    1
    47    22    23    1
    48    22    32    1
    49    22    38    1
    50    23    29    1
    51    23    31    1
    52    23    67    1
    53    24    30    1
    54    24    35    1
    55    24    68    1
    56    25    29    1
    57    25    69    1
    58    25    70    1
    59    26    28    1
    60    26    71    1
    61    26    72    1
    62    27    30    1
    63    27    73    1
    64    27    74    1
    65    28    75    1
    66    28    76    1
    67    29    77    1
    68    29    78    1
    69    30    79    1
    70    30    80    1
    71    31    36    1
    72    31    39    1
    73    31    40    1
    74    32    37    1
    75    32    81    1
    76    32    82    1
    77    33    83    1
    78    33    84    1
    79    33    85    1
    80    34    86    1
    81    34    87    1
    82    34    88    1
    83    35    41    1
    84    35    42    1
    85    36    37    1
    86    36    89    1
    87    37    90    1
    88    37    91    1
    89    38    92    1
    90    39    93    1
    91    39    96    1
    92    39    97    1
    93    40    94    1
    94    40    95    1
    95    40    98    1
    96    41    43    1
    97    41    99    1
    98    41   100    1
    99    42   101    1
   100    42   102    1
   101    42   103    1
   102    43    48    1
   103    43   104    1
   104    43   105    1
   105    44    46    1
   106    44   106    1
   107    45    47    1
   108    45   107    1
   109    46    49    1
   110    46   108    1
   111    47    50    1
   112    47   109    1
   113    48    55    2
   114    48   110    1
   115    49    52    1
   116    49   111    1
   117    50    54    1
   118    50   112    1
   119    51    52    1
   120    51    56    1
   121    51   113    1
   122    52   114    1
   123    53    54    1
   124    53   115    1
   125    53   116    1
   126    54   117    1
   127    55    58    1
   128    55    59    1
   129    56   119    1
   130    56   120    1
   131    57    60    1
   132    57   121    1
   133    58   127    1
   134    58   128    1
   135    58   129    1
   136    59   124    1
   137    59   125    1
   138    59   126    1
   139    60    61    1
   140    60   132    1
   141    61    63    1
   142    61   134    1
   143    62    63    1
   144    62    64    1
   145    62   135    1
   146    63   136    1
   147    64   138    1
   148    64   139    1
