@<TRIPOS>MOLECULE
IMPHY004405
 45 48 0 0 0
SMALL
GASTEIGER

@<TRIPOS>ATOM
      1 O           5.9065    0.2374    0.0000 O.2     1  UNL1       -0.4536
      2 O           8.0505    2.3059    0.0000 O.2     1  UNL1       -0.4213
      3 O           7.3193   -1.1191    0.0000 O.3     1  UNL1       -0.4939
      4 O          10.6901   -0.0382    0.0000 O.3     1  UNL1       -0.5062
      5 O           6.7634    3.4649    0.0000 O.2     1  UNL1       -0.2444
      6 O           2.4170    1.1417    0.0000 O.3     1  UNL1       -0.5066
      7 C           7.6904    0.6117    0.0000 C.ar    1  UNL1        0.1024
      8 C           6.7123    0.8196    0.0000 C.ar    1  UNL1        0.1573
      9 C           6.4033    1.7707    0.0000 C.ar    1  UNL1        0.1130
     10 C           7.9970   -0.3838    0.0000 C.ar    1  UNL1        0.1412
     11 C           5.4092    1.7681    0.0000 C.ar    1  UNL1        0.0351
     12 C           8.3596    1.3549    0.0000 C.ar    1  UNL1        0.1496
     13 C           9.0142   -0.6082    0.0000 C.ar    1  UNL1        0.0402
     14 C           5.1028    0.8224    0.0000 C.ar    1  UNL1        0.1400
     15 C           9.3195   -1.5604    0.0000 C.3     1  UNL1       -0.0023
     16 C           9.7112    0.1659    0.0000 C.ar    1  UNL1        0.1273
     17 C           9.3816    1.1540    0.0000 C.ar    1  UNL1        0.0235
     18 C           7.0724    2.5138    0.0000 C.ar    1  UNL1        0.3488
     19 C           4.7276    2.5476    0.0000 C.ar    1  UNL1       -0.0467
     20 C           4.0936    0.5907    0.0000 C.ar    1  UNL1        0.0228
     21 C          10.2969   -1.7721    0.0000 C.2     1  UNL1       -0.0807
     22 C           3.7133    2.3393    0.0000 C.ar    1  UNL1       -0.0194
     23 C           3.3942    1.3542    0.0000 C.ar    1  UNL1        0.1204
     24 C          10.6022   -2.7243    0.0000 C.2     1  UNL1       -0.0793
     25 C           7.6173   -2.0737    0.0000 C.3     1  UNL1        0.0788
     26 C          11.5795   -2.9360    0.0000 C.3     1  UNL1       -0.0440
     27 C           9.9302   -3.4649    0.0000 C.3     1  UNL1       -0.0440
     28 H           8.7052   -1.6443    0.0000 H       1  UNL1        0.0358
     29 H           9.2955   -2.1800    0.0000 H       1  UNL1        0.0358
     30 H           9.7912    1.6196    0.0000 H       1  UNL1        0.0691
     31 H           4.9255    3.1352    0.0000 H       1  UNL1        0.0626
     32 H           3.9094   -0.0013    0.0000 H       1  UNL1        0.0691
     33 H          10.7135   -1.3130    0.0000 H       1  UNL1        0.0575
     34 H           3.2998    2.8013    0.0000 H       1  UNL1        0.0654
     35 H          11.1032    0.4241    0.0000 H       1  UNL1        0.2921
     36 H           7.0255   -2.2584    0.0000 H       1  UNL1        0.0660
     37 H           7.8021   -2.6655    0.0000 H       1  UNL1        0.0660
     38 H           8.2092   -1.8889    0.0000 H       1  UNL1        0.0660
     39 H          11.4483   -3.5420    0.0000 H       1  UNL1        0.0274
     40 H           9.4711   -3.0483    0.0000 H       1  UNL1        0.0274
     41 H           9.5136   -3.9240    0.0000 H       1  UNL1        0.0274
     42 H          10.3894   -3.8815    0.0000 H       1  UNL1        0.0274
     43 H          12.1855   -3.0673    0.0000 H       1  UNL1        0.0274
     44 H          11.7108   -2.3301    0.0000 H       1  UNL1        0.0274
     45 H           2.0000    1.6005    0.0000 H       1  UNL1        0.2921
@<TRIPOS>BOND
     1     1     8   ar
     2     1    14   ar
     3     2    12   ar
     4     2    18   ar
     5     3    10    1
     6     3    25    1
     7     4    16    1
     8     4    35    1
     9     5    18    2
    10     6    23    1
    11     6    45    1
    12     7     8   ar
    13     7    10   ar
    14     7    12   ar
    15     8     9   ar
    16     9    11   ar
    17     9    18   ar
    18    10    13   ar
    19    11    14   ar
    20    11    19   ar
    21    12    17   ar
    22    13    15    1
    23    13    16   ar
    24    14    20   ar
    25    15    21    1
    26    15    28    1
    27    15    29    1
    28    16    17   ar
    29    17    30    1
    30    19    22   ar
    31    19    31    1
    32    20    23   ar
    33    20    32    1
    34    21    24    2
    35    21    33    1
    36    22    23   ar
    37    22    34    1
    38    24    26    1
    39    24    27    1
    40    25    36    1
    41    25    37    1
    42    25    38    1
    43    26    39    1
    44    26    43    1
    45    26    44    1
    46    27    40    1
    47    27    41    1
    48    27    42    1
