@<TRIPOS>MOLECULE
IMPHY010911
 159 168 0 0 0
SMALL
GASTEIGER

@<TRIPOS>ATOM
      1 O          14.3523    5.8824    0.0000 O.3     1  UNL1       -0.3448
      2 O          12.5799    6.7772    0.0000 O.3     1  UNL1       -0.3480
      3 O          15.6241    0.3003    0.0000 O.3     1  UNL1       -0.3915
      4 O          12.9292   -2.3617    0.0000 O.3     1  UNL1       -0.3454
      5 O          11.1972   -2.3617    0.0000 O.3     1  UNL1       -0.3405
      6 O          12.9292   -4.3617    0.0000 O.3     1  UNL1       -0.3841
      7 O          11.1972   -5.3617    0.0000 O.3     1  UNL1       -0.3864
      8 O           9.4651   -4.3617    0.0000 O.3     1  UNL1       -0.3401
      9 O           9.4651   -1.3617    0.0000 O.3     1  UNL1       -0.3924
     10 O           8.5991   -2.8617    0.0000 O.3     1  UNL1       -0.3405
     11 O           7.7331   -5.3617    0.0000 O.3     1  UNL1       -0.3377
     12 O           6.0010   -4.3617    0.0000 O.3     1  UNL1       -0.3400
     13 O           6.0010   -2.3617    0.0000 O.3     1  UNL1       -0.3865
     14 O           6.4062   -6.4750    0.0000 O.3     1  UNL1       -0.3405
     15 O           6.8671   -0.8617    0.0000 O.3     1  UNL1       -0.3924
     16 O           5.1350   -2.8617    0.0000 O.3     1  UNL1       -0.3405
     17 O           9.0187   -6.8937    0.0000 O.3     1  UNL1       -0.3841
     18 O           4.2690   -5.3617    0.0000 O.3     1  UNL1       -0.3841
     19 O           8.3347   -8.7732    0.0000 O.3     1  UNL1       -0.3864
     20 O           6.3650   -9.1205    0.0000 O.3     1  UNL1       -0.3865
     21 O           2.5369   -4.3617    0.0000 O.3     1  UNL1       -0.3864
     22 O           2.5369   -2.3617    0.0000 O.3     1  UNL1       -0.3865
     23 O           4.7374   -8.5280    0.0000 O.3     1  UNL1       -0.3924
     24 O           3.4030   -0.8617    0.0000 O.3     1  UNL1       -0.3924
     25 C          12.9585    3.8352    0.0000 C.3     1  UNL1       -0.0233
     26 C          13.8264    3.3385    0.0000 C.3     1  UNL1       -0.0298
     27 C          13.8303    2.3385    0.0000 C.3     1  UNL1       -0.0319
     28 C          13.1640    4.8078    0.0000 C.3     1  UNL1       -0.0015
     29 C          12.9662    1.8352    0.0000 C.3     1  UNL1       -0.0321
     30 C          12.9542    0.7936    0.0000 C.3     1  UNL1       -0.0236
     31 C          14.1523    4.9146    0.0000 C.3     1  UNL1        0.0660
     32 C          14.5609    4.0084    0.0000 C.3     1  UNL1       -0.0226
     33 C          12.0944    3.3318    0.0000 C.3     1  UNL1       -0.0467
     34 C          12.0983    2.3318    0.0000 C.3     1  UNL1       -0.0489
     35 C          12.7617    5.7104    0.0000 C.3     1  UNL1        0.0160
     36 C          13.8542    0.2693    0.0000 C.3     1  UNL1       -0.0070
     37 C          14.7422    1.8352    0.0000 C.3     1  UNL1       -0.0232
     38 C          13.4946    6.3732    0.0000 C.3     1  UNL1        0.1732
     39 C          14.7543    0.7936    0.0000 C.3     1  UNL1        0.0589
     40 C          12.0906    4.3318    0.0000 C.3     1  UNL1       -0.0590
     41 C          12.0043    0.2693    0.0000 C.3     1  UNL1       -0.0447
     42 C          13.8668   -0.8156    0.0000 C.3     1  UNL1       -0.0208
     43 C          12.0901    1.2970    0.0000 C.3     1  UNL1       -0.0590
     44 C          11.9917   -0.8156    0.0000 C.3     1  UNL1       -0.0260
     45 C          12.9292   -1.3617    0.0000 C.3     1  UNL1        0.0622
     46 C          11.7833    5.9171    0.0000 C.3     1  UNL1       -0.0572
     47 C          14.3019    6.9634    0.0000 C.3     1  UNL1        0.0020
     48 C          14.1944    7.9576    0.0000 C.3     1  UNL1       -0.0435
     49 C          12.4724    7.7714    0.0000 C.3     1  UNL1        0.0535
     50 C          13.2796    8.3616    0.0000 C.3     1  UNL1       -0.0201
     51 C          13.1721    9.3558    0.0000 C.3     1  UNL1       -0.0603
     52 C          12.0632   -2.8617    0.0000 C.3     1  UNL1        0.1882
     53 C          12.0632   -3.8617    0.0000 C.3     1  UNL1        0.1341
     54 C          11.1972   -4.3617    0.0000 C.3     1  UNL1        0.1144
     55 C          10.3312   -2.8617    0.0000 C.3     1  UNL1        0.1134
     56 C          10.3312   -3.8617    0.0000 C.3     1  UNL1        0.1184
     57 C           9.4651   -2.3617    0.0000 C.3     1  UNL1        0.0730
     58 C           8.5991   -3.8617    0.0000 C.3     1  UNL1        0.1888
     59 C           7.7331   -4.3617    0.0000 C.3     1  UNL1        0.1410
     60 C           6.8671   -3.8617    0.0000 C.3     1  UNL1        0.1209
     61 C           7.7331   -2.3617    0.0000 C.3     1  UNL1        0.1130
     62 C           6.8671   -2.8617    0.0000 C.3     1  UNL1        0.1123
     63 C           7.7331   -1.3617    0.0000 C.3     1  UNL1        0.0730
     64 C           7.3910   -6.3014    0.0000 C.3     1  UNL1        0.1885
     65 C           5.1350   -3.8617    0.0000 C.3     1  UNL1        0.1884
     66 C           8.0339   -7.0674    0.0000 C.3     1  UNL1        0.1341
     67 C           4.2690   -4.3617    0.0000 C.3     1  UNL1        0.1341
     68 C           7.6918   -8.0071    0.0000 C.3     1  UNL1        0.1141
     69 C           6.0642   -7.4147    0.0000 C.3     1  UNL1        0.1130
     70 C           6.7070   -8.1808    0.0000 C.3     1  UNL1        0.1119
     71 C           3.4030   -3.8617    0.0000 C.3     1  UNL1        0.1141
     72 C           4.2690   -2.3617    0.0000 C.3     1  UNL1        0.1130
     73 C           3.4030   -2.8617    0.0000 C.3     1  UNL1        0.1119
     74 C           5.0794   -7.5883    0.0000 C.3     1  UNL1        0.0730
     75 C           4.2690   -1.3617    0.0000 C.3     1  UNL1        0.0730
     76 H          14.6047    2.9968    0.0000 H       1  UNL1        0.0310
     77 H          14.5615    2.7720    0.0000 H       1  UNL1        0.0307
     78 H          12.3187    4.7182    0.0000 H       1  UNL1        0.0335
     79 H          13.7007    1.4074    0.0000 H       1  UNL1        0.0309
     80 H          14.9972    5.0078    0.0000 H       1  UNL1        0.0600
     81 H          14.9283    3.5090    0.0000 H       1  UNL1        0.0293
     82 H          15.0962    4.3213    0.0000 H       1  UNL1        0.0293
     83 H          11.8801    3.9136    0.0000 H       1  UNL1        0.0271
     84 H          11.4842    3.2218    0.0000 H       1  UNL1        0.0271
     85 H          11.4873    2.4372    0.0000 H       1  UNL1        0.0268
     86 H          11.8885    1.7484    0.0000 H       1  UNL1        0.0268
     87 H          12.3719    5.2282    0.0000 H       1  UNL1        0.0354
     88 H          14.5936   -0.1500    0.0000 H       1  UNL1        0.0332
     89 H          15.3543    1.7362    0.0000 H       1  UNL1        0.0293
     90 H          14.9445    2.4212    0.0000 H       1  UNL1        0.0293
     91 H          15.2882    1.1088    0.0000 H       1  UNL1        0.0596
     92 H          12.3985    4.8700    0.0000 H       1  UNL1        0.0235
     93 H          11.5524    4.6398    0.0000 H       1  UNL1        0.0235
     94 H          11.7826    3.7937    0.0000 H       1  UNL1        0.0235
     95 H          11.8020    0.8554    0.0000 H       1  UNL1        0.0271
     96 H          11.3922    0.1703    0.0000 H       1  UNL1        0.0271
     97 H          14.0826   -1.3968    0.0000 H       1  UNL1        0.0294
     98 H          14.4764   -0.7024    0.0000 H       1  UNL1        0.0294
     99 H          12.4021    1.8327    0.0000 H       1  UNL1        0.0235
    100 H          11.5543    1.6090    0.0000 H       1  UNL1        0.0235
    101 H          11.7780    0.7612    0.0000 H       1  UNL1        0.0235
    102 H          11.3821   -0.7024    0.0000 H       1  UNL1        0.0290
    103 H          11.7759   -1.3968    0.0000 H       1  UNL1        0.0290
    104 H          12.3917   -1.6707    0.0000 H       1  UNL1        0.0597
    105 H          11.9114    6.5237    0.0000 H       1  UNL1        0.0234
    106 H          11.1766    6.0452    0.0000 H       1  UNL1        0.0234
    107 H          11.6551    5.3104    0.0000 H       1  UNL1        0.0234
    108 H          14.5753    6.4069    0.0000 H       1  UNL1        0.0317
    109 H          14.8974    7.1360    0.0000 H       1  UNL1        0.0317
    110 H          14.8130    7.9162    0.0000 H       1  UNL1        0.0270
    111 H          14.3426    8.5596    0.0000 H       1  UNL1        0.0270
    112 H          16.1587    0.6144    0.0000 H       1  UNL1        0.2098
    113 H          12.1989    8.3278    0.0000 H       1  UNL1        0.0563
    114 H          11.8769    7.5987    0.0000 H       1  UNL1        0.0563
    115 H          13.7801    8.7275    0.0000 H       1  UNL1        0.0320
    116 H          13.7885    9.4224    0.0000 H       1  UNL1        0.0233
    117 H          13.1055    9.9722    0.0000 H       1  UNL1        0.0233
    118 H          12.5557    9.2891    0.0000 H       1  UNL1        0.0233
    119 H          12.0632   -2.2417    0.0000 H       1  UNL1        0.0937
    120 H          12.0632   -4.4817    0.0000 H       1  UNL1        0.0671
    121 H          10.6603   -4.6717    0.0000 H       1  UNL1        0.0648
    122 H          10.3312   -2.2417    0.0000 H       1  UNL1        0.0647
    123 H           9.7942   -3.5517    0.0000 H       1  UNL1        0.0651
    124 H          13.4662   -4.0517    0.0000 H       1  UNL1        0.2101
    125 H           8.8546   -2.2540    0.0000 H       1  UNL1        0.0584
    126 H           9.2531   -2.9443    0.0000 H       1  UNL1        0.0584
    127 H          11.7341   -5.6717    0.0000 H       1  UNL1        0.2100
    128 H           8.5991   -4.4817    0.0000 H       1  UNL1        0.0938
    129 H           8.9282   -1.0517    0.0000 H       1  UNL1        0.2095
    130 H           7.1962   -4.6717    0.0000 H       1  UNL1        0.0675
    131 H           6.3301   -3.5517    0.0000 H       1  UNL1        0.0651
    132 H           8.2700   -2.0517    0.0000 H       1  UNL1        0.0647
    133 H           6.8671   -2.2417    0.0000 H       1  UNL1        0.0647
    134 H           8.3437   -1.4694    0.0000 H       1  UNL1        0.0584
    135 H           7.9451   -0.7791    0.0000 H       1  UNL1        0.0584
    136 H           6.9925   -5.8264    0.0000 H       1  UNL1        0.0938
    137 H           6.0010   -1.7417    0.0000 H       1  UNL1        0.2100
    138 H           5.1350   -4.4817    0.0000 H       1  UNL1        0.0938
    139 H           8.4324   -7.5424    0.0000 H       1  UNL1        0.0671
    140 H           3.7320   -4.6717    0.0000 H       1  UNL1        0.0671
    141 H           7.4798   -8.5898    0.0000 H       1  UNL1        0.0648
    142 H           6.8671   -0.2417    0.0000 H       1  UNL1        0.2095
    143 H           5.6656   -6.9397    0.0000 H       1  UNL1        0.0647
    144 H           6.0964   -8.2884    0.0000 H       1  UNL1        0.0647
    145 H           2.8660   -3.5517    0.0000 H       1  UNL1        0.0648
    146 H           4.8059   -2.0517    0.0000 H       1  UNL1        0.0647
    147 H           3.4030   -2.2417    0.0000 H       1  UNL1        0.0647
    148 H           9.2307   -6.3112    0.0000 H       1  UNL1        0.2101
    149 H           5.0794   -6.9683    0.0000 H       1  UNL1        0.0584
    150 H           4.4688   -7.4806    0.0000 H       1  UNL1        0.0584
    151 H           3.7320   -5.6717    0.0000 H       1  UNL1        0.2101
    152 H           8.1226   -9.3558    0.0000 H       1  UNL1        0.2100
    153 H           4.8796   -1.4694    0.0000 H       1  UNL1        0.0584
    154 H           4.4810   -0.7791    0.0000 H       1  UNL1        0.0584
    155 H           5.7544   -9.2281    0.0000 H       1  UNL1        0.2100
    156 H           2.0000   -4.0517    0.0000 H       1  UNL1        0.2100
    157 H           2.0000   -2.6717    0.0000 H       1  UNL1        0.2100
    158 H           4.1268   -8.6357    0.0000 H       1  UNL1        0.2095
    159 H           3.4030   -0.2417    0.0000 H       1  UNL1        0.2095
@<TRIPOS>BOND
     1     1    31    1
     2    38     1    1
     3     2    38    1
     4     2    49    1
     5    39     3    1
     6     3   112    1
     7    45     4    1
     8    52     4    1
     9     5    52    1
    10     5    55    1
    11    53     6    1
    12     6   124    1
    13    54     7    1
    14     7   127    1
    15    56     8    1
    16    58     8    1
    17     9    57    1
    18     9   129    1
    19    10    58    1
    20    10    61    1
    21    59    11    1
    22    64    11    1
    23    60    12    1
    24    65    12    1
    25    62    13    1
    26    13   137    1
    27    14    64    1
    28    14    69    1
    29    15    63    1
    30    15   142    1
    31    16    65    1
    32    16    72    1
    33    66    17    1
    34    17   148    1
    35    67    18    1
    36    18   151    1
    37    68    19    1
    38    19   152    1
    39    70    20    1
    40    20   155    1
    41    71    21    1
    42    21   156    1
    43    73    22    1
    44    22   157    1
    45    23    74    1
    46    23   158    1
    47    24    75    1
    48    24   159    1
    49    25    26    1
    50    25    28    1
    51    25    33    1
    52    25    40    1
    53    26    27    1
    54    26    32    1
    55    26    76    1
    56    27    29    1
    57    27    37    1
    58    27    77    1
    59    28    31    1
    60    28    35    1
    61    28    78    1
    62    29    30    1
    63    29    34    1
    64    29    79    1
    65    30    36    1
    66    30    41    1
    67    30    43    1
    68    31    32    1
    69    31    80    1
    70    32    81    1
    71    32    82    1
    72    33    34    1
    73    33    83    1
    74    33    84    1
    75    34    85    1
    76    34    86    1
    77    35    38    1
    78    35    46    1
    79    35    87    1
    80    36    39    1
    81    36    42    1
    82    36    88    1
    83    37    39    1
    84    37    89    1
    85    37    90    1
    86    38    47    1
    87    39    91    1
    88    40    92    1
    89    40    93    1
    90    40    94    1
    91    41    44    1
    92    41    95    1
    93    41    96    1
    94    42    45    1
    95    42    97    1
    96    42    98    1
    97    43    99    1
    98    43   100    1
    99    43   101    1
   100    44    45    1
   101    44   102    1
   102    44   103    1
   103    45   104    1
   104    46   105    1
   105    46   106    1
   106    46   107    1
   107    47    48    1
   108    47   108    1
   109    47   109    1
   110    48    50    1
   111    48   110    1
   112    48   111    1
   113    49    50    1
   114    49   113    1
   115    49   114    1
   116    50    51    1
   117    50   115    1
   118    51   116    1
   119    51   117    1
   120    51   118    1
   121    52    53    1
   122    52   119    1
   123    53    54    1
   124    53   120    1
   125    54    56    1
   126    54   121    1
   127    55    56    1
   128    55    57    1
   129    55   122    1
   130    56   123    1
   131    57   125    1
   132    57   126    1
   133    58    59    1
   134    58   128    1
   135    59    60    1
   136    59   130    1
   137    60    62    1
   138    60   131    1
   139    61    62    1
   140    61    63    1
   141    61   132    1
   142    62   133    1
   143    63   134    1
   144    63   135    1
   145    64    66    1
   146    64   136    1
   147    65    67    1
   148    65   138    1
   149    66    68    1
   150    66   139    1
   151    67    71    1
   152    67   140    1
   153    68    70    1
   154    68   141    1
   155    69    70    1
   156    69    74    1
   157    69   143    1
   158    70   144    1
   159    71    73    1
   160    71   145    1
   161    72    73    1
   162    72    75    1
   163    72   146    1
   164    73   147    1
   165    74   149    1
   166    74   150    1
   167    75   153    1
   168    75   154    1
