@<TRIPOS>MOLECULE
IMPHY017000
 27 28 0 0 0
SMALL
GASTEIGER

@<TRIPOS>ATOM
      1 O           3.8660    1.5670    0.0000 O.3     1  UNL1       -0.3682
      2 C           2.8660    1.5670    0.0000 C.3     1  UNL1        0.0931
      3 C           2.8660    0.5670    0.0000 C.3     1  UNL1       -0.0063
      4 C           3.3660    2.4330    0.0000 C.3     1  UNL1        0.0775
      5 C           2.0000    0.0670    0.0000 C.3     1  UNL1       -0.0436
      6 C           3.7320    0.0670    0.0000 C.3     1  UNL1       -0.0290
      7 C           2.0000    2.0670    0.0000 C.3     1  UNL1       -0.0334
      8 C           2.0000   -0.9330    0.0000 C.3     1  UNL1       -0.0317
      9 C           3.7320   -0.9330    0.0000 C.2     1  UNL1       -0.0847
     10 C           2.8660   -1.4330    0.0000 C.2     1  UNL1       -0.0765
     11 C           2.8660   -2.4330    0.0000 C.3     1  UNL1       -0.0438
     12 H           3.4030    0.8770    0.0000 H       1  UNL1        0.0332
     13 H           3.8410    2.8315    0.0000 H       1  UNL1        0.0589
     14 H           2.8911    2.8315    0.0000 H       1  UNL1        0.0589
     15 H           1.7880    0.6496    0.0000 H       1  UNL1        0.0272
     16 H           1.3894   -0.0407    0.0000 H       1  UNL1        0.0272
     17 H           4.3426   -0.0407    0.0000 H       1  UNL1        0.0311
     18 H           3.9441    0.6496    0.0000 H       1  UNL1        0.0311
     19 H           2.3100    2.6039    0.0000 H       1  UNL1        0.0258
     20 H           1.4631    2.3770    0.0000 H       1  UNL1        0.0258
     21 H           1.6900    1.5300    0.0000 H       1  UNL1        0.0258
     22 H           1.3894   -0.8254    0.0000 H       1  UNL1        0.0310
     23 H           1.7880   -1.5156    0.0000 H       1  UNL1        0.0310
     24 H           4.2690   -1.2430    0.0000 H       1  UNL1        0.0572
     25 H           2.2460   -2.4330    0.0000 H       1  UNL1        0.0274
     26 H           2.8660   -3.0530    0.0000 H       1  UNL1        0.0274
     27 H           3.4860   -2.4330    0.0000 H       1  UNL1        0.0274
@<TRIPOS>BOND
     1     1     2    1
     2     1     4    1
     3     2     3    1
     4     2     4    1
     5     2     7    1
     6     3     5    1
     7     3     6    1
     8     3    12    1
     9     4    13    1
    10     4    14    1
    11     5     8    1
    12     5    15    1
    13     5    16    1
    14     6     9    1
    15     6    17    1
    16     6    18    1
    17     7    19    1
    18     7    20    1
    19     7    21    1
    20     8    10    1
    21     8    22    1
    22     8    23    1
    23     9    10    2
    24     9    24    1
    25    10    11    1
    26    11    25    1
    27    11    26    1
    28    11    27    1
