@<TRIPOS>MOLECULE
IMPHY010964
 84 87 0 0 0
SMALL
GASTEIGER

@<TRIPOS>ATOM
      1 C           5.6591   -1.6735    0.0000 C.3     1  UNL1       -0.0231
      2 C           6.5251   -1.1735    0.0000 C.3     1  UNL1       -0.0233
      3 C           4.7931   -1.1735    0.0000 C.3     1  UNL1       -0.0294
      4 C           3.8831   -1.6803    0.0000 C.3     1  UNL1       -0.0254
      5 C           6.5251   -0.1735    0.0000 C.3     1  UNL1       -0.0320
      6 C           3.8751   -2.7219    0.0000 C.3     1  UNL1       -0.0302
      7 C           5.6752   -2.7150    0.0000 C.3     1  UNL1       -0.0466
      8 C           4.7931   -0.1735    0.0000 C.3     1  UNL1       -0.0489
      9 C           7.4714    0.1313    0.0000 C.3     1  UNL1       -0.0351
     10 C           7.4714   -1.4782    0.0000 C.3     1  UNL1       -0.0466
     11 C           5.6591    0.3265    0.0000 C.3     1  UNL1       -0.0492
     12 C           4.7771   -3.2427    0.0000 C.3     1  UNL1       -0.0487
     13 C           2.9396   -3.2716    0.0000 C.3     1  UNL1       -0.0315
     14 C           8.0550   -0.6735    0.0000 C.3     1  UNL1       -0.0492
     15 C           2.9562   -1.1162    0.0000 C.3     1  UNL1       -0.0471
     16 C           6.3019   -2.4395    0.0000 C.3     1  UNL1       -0.0588
     17 C           6.8672   -2.1131    0.0000 C.3     1  UNL1       -0.0588
     18 C           3.8908   -0.6803    0.0000 C.3     1  UNL1       -0.0590
     19 C           2.0000   -2.7291    0.0000 C.3     1  UNL1       -0.0476
     20 C           7.7820    1.0818    0.0000 C.3     1  UNL1       -0.0408
     21 C           2.0084   -1.6442    0.0000 C.3     1  UNL1       -0.0521
     22 C           2.4430   -4.1396    0.0000 C.3     1  UNL1       -0.0595
     23 C           3.4430   -4.1357    0.0000 C.3     1  UNL1       -0.0595
     24 C           8.7605    1.2880    0.0000 C.3     1  UNL1       -0.0502
     25 C           7.1142    1.8261    0.0000 C.3     1  UNL1       -0.0622
     26 C           9.0712    2.2385    0.0000 C.3     1  UNL1       -0.0526
     27 C          10.0497    2.4448    0.0000 C.3     1  UNL1       -0.0507
     28 C          10.3604    3.3953    0.0000 C.3     1  UNL1       -0.0467
     29 C          11.3389    3.6015    0.0000 C.3     1  UNL1       -0.0627
     30 C           9.6925    4.1396    0.0000 C.3     1  UNL1       -0.0627
     31 H           5.5292   -0.7485    0.0000 H       1  UNL1        0.0312
     32 H           6.6151    0.6718    0.0000 H       1  UNL1        0.0309
     33 H           3.8783   -3.5719    0.0000 H       1  UNL1        0.0311
     34 H           5.8932   -3.2954    0.0000 H       1  UNL1        0.0271
     35 H           6.2843   -2.5995    0.0000 H       1  UNL1        0.0271
     36 H           4.5810    0.4092    0.0000 H       1  UNL1        0.0268
     37 H           4.1825   -0.2811    0.0000 H       1  UNL1        0.0268
     38 H           8.3111    0.2632    0.0000 H       1  UNL1        0.0306
     39 H           7.2203   -2.0451    0.0000 H       1  UNL1        0.0271
     40 H           8.0087   -1.7874    0.0000 H       1  UNL1        0.0271
     41 H           6.0576    0.8015    0.0000 H       1  UNL1        0.0268
     42 H           5.2606    0.8015    0.0000 H       1  UNL1        0.0268
     43 H           4.3798   -3.7187    0.0000 H       1  UNL1        0.0268
     44 H           5.1781   -3.7156    0.0000 H       1  UNL1        0.0268
     45 H           8.5158   -1.0882    0.0000 H       1  UNL1        0.0268
     46 H           8.5158   -0.2587    0.0000 H       1  UNL1        0.0268
     47 H           3.3645   -0.6496    0.0000 H       1  UNL1        0.0271
     48 H           2.5663   -0.6342    0.0000 H       1  UNL1        0.0271
     49 H           5.8270   -2.8380    0.0000 H       1  UNL1        0.0235
     50 H           6.7004   -2.9144    0.0000 H       1  UNL1        0.0235
     51 H           6.7768   -2.0410    0.0000 H       1  UNL1        0.0235
     52 H           6.2847   -2.3252    0.0000 H       1  UNL1        0.0235
     53 H           7.0794   -2.6957    0.0000 H       1  UNL1        0.0235
     54 H           7.4498   -1.9010    0.0000 H       1  UNL1        0.0235
     55 H           4.5108   -0.6851    0.0000 H       1  UNL1        0.0235
     56 H           3.8956   -0.0604    0.0000 H       1  UNL1        0.0235
     57 H           3.2708   -0.6756    0.0000 H       1  UNL1        0.0235
     58 H           1.3900   -2.6183    0.0000 H       1  UNL1        0.0271
     59 H           1.7864   -3.3112    0.0000 H       1  UNL1        0.0271
     60 H           7.9746    1.6711    0.0000 H       1  UNL1        0.0301
     61 H           1.8038   -1.0589    0.0000 H       1  UNL1        0.0266
     62 H           1.3967   -1.7456    0.0000 H       1  UNL1        0.0266
     63 H           1.9048   -3.8316    0.0000 H       1  UNL1        0.0235
     64 H           2.1350   -4.6777    0.0000 H       1  UNL1        0.0235
     65 H           2.9811   -4.4475    0.0000 H       1  UNL1        0.0235
     66 H           2.9072   -4.4478    0.0000 H       1  UNL1        0.0235
     67 H           3.7550   -4.6715    0.0000 H       1  UNL1        0.0235
     68 H           3.9787   -3.8236    0.0000 H       1  UNL1        0.0235
     69 H           8.7811    0.6684    0.0000 H       1  UNL1        0.0268
     70 H           9.3743    1.2007    0.0000 H       1  UNL1        0.0268
     71 H           7.5756    2.2402    0.0000 H       1  UNL1        0.0233
     72 H           6.7001    2.2876    0.0000 H       1  UNL1        0.0233
     73 H           6.6527    1.4120    0.0000 H       1  UNL1        0.0233
     74 H           9.0506    2.8582    0.0000 H       1  UNL1        0.0265
     75 H           8.4574    2.3259    0.0000 H       1  UNL1        0.0265
     76 H          10.0703    1.8251    0.0000 H       1  UNL1        0.0268
     77 H          10.6635    2.3574    0.0000 H       1  UNL1        0.0268
     78 H          10.5530    3.9846    0.0000 H       1  UNL1        0.0295
     79 H          11.4667    2.9948    0.0000 H       1  UNL1        0.0232
     80 H          11.9455    3.7294    0.0000 H       1  UNL1        0.0232
     81 H          11.2110    4.2082    0.0000 H       1  UNL1        0.0232
     82 H          10.1540    4.5536    0.0000 H       1  UNL1        0.0232
     83 H           9.2784    4.6010    0.0000 H       1  UNL1        0.0232
     84 H           9.2310    3.7255    0.0000 H       1  UNL1        0.0232
@<TRIPOS>BOND
     1     1     2    1
     2     1     3    1
     3     1     7    1
     4     1    16    1
     5     2     5    1
     6     2    10    1
     7     2    17    1
     8     3     4    1
     9     3     8    1
    10     3    31    1
    11     4     6    1
    12     4    15    1
    13     4    18    1
    14     5     9    1
    15     5    11    1
    16     5    32    1
    17     6    12    1
    18     6    13    1
    19     6    33    1
    20     7    12    1
    21     7    34    1
    22     7    35    1
    23     8    11    1
    24     8    36    1
    25     8    37    1
    26     9    14    1
    27     9    20    1
    28     9    38    1
    29    10    14    1
    30    10    39    1
    31    10    40    1
    32    11    41    1
    33    11    42    1
    34    12    43    1
    35    12    44    1
    36    13    19    1
    37    13    22    1
    38    13    23    1
    39    14    45    1
    40    14    46    1
    41    15    21    1
    42    15    47    1
    43    15    48    1
    44    16    49    1
    45    16    50    1
    46    16    51    1
    47    17    52    1
    48    17    53    1
    49    17    54    1
    50    18    55    1
    51    18    56    1
    52    18    57    1
    53    19    21    1
    54    19    58    1
    55    19    59    1
    56    20    24    1
    57    20    25    1
    58    20    60    1
    59    21    61    1
    60    21    62    1
    61    22    63    1
    62    22    64    1
    63    22    65    1
    64    23    66    1
    65    23    67    1
    66    23    68    1
    67    24    26    1
    68    24    69    1
    69    24    70    1
    70    25    71    1
    71    25    72    1
    72    25    73    1
    73    26    27    1
    74    26    74    1
    75    26    75    1
    76    27    28    1
    77    27    76    1
    78    27    77    1
    79    28    29    1
    80    28    30    1
    81    28    78    1
    82    29    79    1
    83    29    80    1
    84    29    81    1
    85    30    82    1
    86    30    83    1
    87    30    84    1
