@<TRIPOS>MOLECULE
IMPHY001884
 54 56 0 0 0
SMALL
GASTEIGER

@<TRIPOS>ATOM
      1 O           2.5369    1.9100    0.0000 O.3     1  UNL1       -0.3912
      2 O           4.2690    3.6421    0.0000 O.3     1  UNL1       -0.3944
      3 O           7.3482   -4.1790    0.0000 O.3     1  UNL1       -0.4572
      4 O           8.6228   -2.9336    0.0000 O.2     1  UNL1       -0.2453
      5 C           5.1350    0.4100    0.0000 C.3     1  UNL1       -0.0220
      6 C           5.1350    1.4100    0.0000 C.3     1  UNL1       -0.0250
      7 C           4.2690    1.9100    0.0000 C.3     1  UNL1        0.0203
      8 C           6.0290   -0.1246    0.0000 C.3     1  UNL1       -0.0142
      9 C           4.2690   -0.0900    0.0000 C.3     1  UNL1       -0.0445
     10 C           3.4030    1.4100    0.0000 C.3     1  UNL1        0.0630
     11 C           6.0290    1.9447    0.0000 C.3     1  UNL1       -0.0454
     12 C           3.4030    0.4100    0.0000 C.3     1  UNL1       -0.0257
     13 C           5.1350   -0.5900    0.0000 C.3     1  UNL1       -0.0587
     14 C           6.9350    1.4308    0.0000 C.3     1  UNL1       -0.0314
     15 C           6.9350    0.3892    0.0000 C.2     1  UNL1       -0.0730
     16 C           3.7690    2.7760    0.0000 C.3     1  UNL1        0.0522
     17 C           4.7690    2.7760    0.0000 C.3     1  UNL1       -0.0548
     18 C           6.0174   -1.1246    0.0000 C.3     1  UNL1       -0.0418
     19 C           6.8776   -1.6346    0.0000 C.3     1  UNL1       -0.0206
     20 C           7.7991   -0.1141    0.0000 C.2     1  UNL1       -0.0992
     21 C           6.8660   -2.6345    0.0000 C.2     1  UNL1        0.0359
     22 C           6.0502   -3.2129    0.0000 C.2     1  UNL1       -0.0371
     23 C           7.6682   -3.2316    0.0000 C.2     1  UNL1        0.3352
     24 C           6.3482   -4.1674    0.0000 C.3     1  UNL1        0.1118
     25 H           5.1285    2.2600    0.0000 H       1  UNL1        0.0313
     26 H           6.5629   -0.4398    0.0000 H       1  UNL1        0.0351
     27 H           3.8705   -0.5649    0.0000 H       1  UNL1        0.0272
     28 H           4.6675   -0.5649    0.0000 H       1  UNL1        0.0272
     29 H           3.4030    2.0300    0.0000 H       1  UNL1        0.0599
     30 H           6.4226    2.4237    0.0000 H       1  UNL1        0.0271
     31 H           5.6244    2.4145    0.0000 H       1  UNL1        0.0271
     32 H           2.7924    0.5177    0.0000 H       1  UNL1        0.0290
     33 H           3.1909   -0.1726    0.0000 H       1  UNL1        0.0290
     34 H           4.5150   -0.5900    0.0000 H       1  UNL1        0.0235
     35 H           5.1350   -1.2100    0.0000 H       1  UNL1        0.0235
     36 H           5.7550   -0.5900    0.0000 H       1  UNL1        0.0235
     37 H           7.5459    1.3247    0.0000 H       1  UNL1        0.0310
     38 H           7.1441    2.0145    0.0000 H       1  UNL1        0.0310
     39 H           3.2940    3.1746    0.0000 H       1  UNL1        0.0563
     40 H           3.2940    2.3775    0.0000 H       1  UNL1        0.0563
     41 H           5.3059    2.4660    0.0000 H       1  UNL1        0.0237
     42 H           5.0790    3.3130    0.0000 H       1  UNL1        0.0237
     43 H           4.2320    3.0860    0.0000 H       1  UNL1        0.0237
     44 H           5.4081   -1.0099    0.0000 H       1  UNL1        0.0274
     45 H           5.7986   -1.7047    0.0000 H       1  UNL1        0.0274
     46 H           7.4869   -1.7493    0.0000 H       1  UNL1        0.0315
     47 H           7.0964   -1.0544    0.0000 H       1  UNL1        0.0315
     48 H           2.0000    1.6000    0.0000 H       1  UNL1        0.2098
     49 H           7.7967   -0.7341    0.0000 H       1  UNL1        0.0534
     50 H           8.3372    0.1938    0.0000 H       1  UNL1        0.0534
     51 H           3.9590    4.1790    0.0000 H       1  UNL1        0.2094
     52 H           5.4629   -3.0145    0.0000 H       1  UNL1        0.0610
     53 H           5.7404   -4.2893    0.0000 H       1  UNL1        0.0743
     54 H           6.4059   -4.7848    0.0000 H       1  UNL1        0.0743
@<TRIPOS>BOND
     1    10     1    1
     2     1    48    1
     3     2    16    1
     4     2    51    1
     5     3    23    1
     6     3    24    1
     7     4    23    2
     8     5     6    1
     9     5     8    1
    10     5     9    1
    11     5    13    1
    12     6     7    1
    13     6    11    1
    14     6    25    1
    15     7    10    1
    16     7    16    1
    17     7    17    1
    18     8    15    1
    19     8    18    1
    20     8    26    1
    21     9    12    1
    22     9    27    1
    23     9    28    1
    24    10    12    1
    25    10    29    1
    26    11    14    1
    27    11    30    1
    28    11    31    1
    29    12    32    1
    30    12    33    1
    31    13    34    1
    32    13    35    1
    33    13    36    1
    34    14    15    1
    35    14    37    1
    36    14    38    1
    37    15    20    2
    38    16    39    1
    39    16    40    1
    40    17    41    1
    41    17    42    1
    42    17    43    1
    43    18    19    1
    44    18    44    1
    45    18    45    1
    46    19    21    1
    47    19    46    1
    48    19    47    1
    49    20    49    1
    50    20    50    1
    51    21    22    2
    52    21    23    1
    53    22    24    1
    54    22    52    1
    55    24    53    1
    56    24    54    1
