@<TRIPOS>MOLECULE
IMPHY016328
 37 37 0 0 0
SMALL
GASTEIGER

@<TRIPOS>ATOM
      1 O           3.8319   -0.9290    0.0000 O.2     1  UNL1       -0.2971
      2 C           5.1980    0.4369    0.0000 C.3     1  UNL1        0.0181
      3 C           4.5981    1.3297    0.0000 C.3     1  UNL1       -0.0252
      4 C           5.1980   -1.2952    0.0000 C.3     1  UNL1        0.0098
      5 C           4.6980   -0.4291    0.0000 C.2     1  UNL1        0.1367
      6 C           4.3320   -1.7952    0.0000 C.3     1  UNL1       -0.0253
      7 C           2.0000    0.8297    0.0000 C.3     1  UNL1       -0.0286
      8 C           2.8660    1.3297    0.0000 C.2     1  UNL1       -0.0762
      9 C           3.7320    0.8297    0.0000 C.2     1  UNL1       -0.0844
     10 C           2.0000   -0.1703    0.0000 C.3     1  UNL1       -0.0308
     11 C           3.3660   -1.5363    0.0000 C.2     1  UNL1       -0.0761
     12 C           6.1977    0.4126    0.0000 C.3     1  UNL1       -0.0554
     13 C           2.8660   -0.6703    0.0000 C.2     1  UNL1       -0.0847
     14 C           2.8660    2.3297    0.0000 C.3     1  UNL1       -0.0438
     15 C           2.7573   -2.3297    0.0000 C.3     1  UNL1       -0.0438
     16 H           5.4962    0.9805    0.0000 H       1  UNL1        0.0378
     17 H           5.1204    1.6637    0.0000 H       1  UNL1        0.0314
     18 H           4.2760    1.8595    0.0000 H       1  UNL1        0.0314
     19 H           5.5080   -1.8321    0.0000 H       1  UNL1        0.0345
     20 H           5.7349   -0.9852    0.0000 H       1  UNL1        0.0345
     21 H           4.0220   -2.3321    0.0000 H       1  UNL1        0.0314
     22 H           4.7704   -2.2336    0.0000 H       1  UNL1        0.0314
     23 H           1.7880    1.4123    0.0000 H       1  UNL1        0.0313
     24 H           1.3894    0.7220    0.0000 H       1  UNL1        0.0313
     25 H           3.7320    0.2097    0.0000 H       1  UNL1        0.0572
     26 H           1.3894   -0.0626    0.0000 H       1  UNL1        0.0310
     27 H           1.7880   -0.7529    0.0000 H       1  UNL1        0.0310
     28 H           6.1826   -0.2072    0.0000 H       1  UNL1        0.0237
     29 H           6.8175    0.3975    0.0000 H       1  UNL1        0.0237
     30 H           6.2128    1.0324    0.0000 H       1  UNL1        0.0237
     31 H           3.3044   -0.2319    0.0000 H       1  UNL1        0.0572
     32 H           3.4860    2.3297    0.0000 H       1  UNL1        0.0274
     33 H           2.8660    2.9497    0.0000 H       1  UNL1        0.0274
     34 H           2.2460    2.3297    0.0000 H       1  UNL1        0.0274
     35 H           2.2654   -1.9523    0.0000 H       1  UNL1        0.0274
     36 H           2.3798   -2.8216    0.0000 H       1  UNL1        0.0274
     37 H           3.2491   -2.7071    0.0000 H       1  UNL1        0.0274
@<TRIPOS>BOND
     1     1     5    2
     2     2     3    1
     3     2     5    1
     4     2    12    1
     5     2    16    1
     6     3     9    1
     7     3    17    1
     8     3    18    1
     9     4     5    1
    10     4     6    1
    11     4    19    1
    12     4    20    1
    13     6    11    1
    14     6    21    1
    15     6    22    1
    16     7     8    1
    17     7    10    1
    18     7    23    1
    19     7    24    1
    20     8     9    2
    21     8    14    1
    22     9    25    1
    23    10    13    1
    24    10    26    1
    25    10    27    1
    26    11    13    2
    27    11    15    1
    28    12    28    1
    29    12    29    1
    30    12    30    1
    31    13    31    1
    32    14    32    1
    33    14    33    1
    34    14    34    1
    35    15    35    1
    36    15    36    1
    37    15    37    1
