@<TRIPOS>MOLECULE
IMPHY006888
 53 56 0 0 0
SMALL
GASTEIGER

@<TRIPOS>ATOM
      1 O           2.3052   -2.5294    0.0000 O.3     1  UNL1       -0.3945
      2 C           4.7330   -0.0541    0.0000 C.3     1  UNL1       -0.0251
      3 C           5.6405    0.4573    0.0000 C.3     1  UNL1       -0.0262
      4 C           6.5090   -0.0384    0.0000 C.3     1  UNL1       -0.0071
      5 C           4.7302   -1.0958    0.0000 C.3     1  UNL1       -0.0278
      6 C           6.4845    1.1429    0.0000 C.3     1  UNL1       -0.0348
      7 C           6.5302   -1.0798    0.0000 C.3     1  UNL1       -0.0433
      8 C           7.1606    2.1120    0.0000 C.3     1  UNL1       -0.0132
      9 C           3.7975   -1.6501    0.0000 C.3     1  UNL1       -0.0056
     10 C           5.6349   -1.6121    0.0000 C.3     1  UNL1       -0.0483
     11 C           5.4865    1.4453    0.0000 C.3     1  UNL1       -0.0481
     12 C           3.8034    0.5053    0.0000 C.3     1  UNL1       -0.0471
     13 C           6.1630    2.1818    0.0000 C.3     1  UNL1       -0.0439
     14 C           7.4380    0.3316    0.0000 C.2     1  UNL1       -0.0809
     15 C           2.8552   -1.1123    0.0000 C.3     1  UNL1       -0.0452
     16 C           4.3936    0.8865    0.0000 C.3     1  UNL1       -0.0590
     17 C           2.8582   -0.0273    0.0000 C.3     1  UNL1       -0.0520
     18 C           7.7280    1.2886    0.0000 C.2     1  UNL1       -0.0814
     19 C           3.3052   -2.5205    0.0000 C.3     1  UNL1        0.0498
     20 C           7.4506    3.0690    0.0000 C.3     1  UNL1       -0.0561
     21 C           4.3052   -2.5117    0.0000 C.3     1  UNL1       -0.0572
     22 H           4.9023    0.8786    0.0000 H       1  UNL1        0.0314
     23 H           4.7377   -1.9457    0.0000 H       1  UNL1        0.0312
     24 H           6.1103    1.6373    0.0000 H       1  UNL1        0.0282
     25 H           5.8988    0.9395    0.0000 H       1  UNL1        0.0282
     26 H           6.7512   -1.6591    0.0000 H       1  UNL1        0.0274
     27 H           7.1388   -0.9613    0.0000 H       1  UNL1        0.0274
     28 H           5.2399   -2.0900    0.0000 H       1  UNL1        0.0269
     29 H           6.0382   -2.0830    0.0000 H       1  UNL1        0.0269
     30 H           5.1347    1.9558    0.0000 H       1  UNL1        0.0269
     31 H           4.9105    1.2159    0.0000 H       1  UNL1        0.0269
     32 H           4.2093    0.9740    0.0000 H       1  UNL1        0.0271
     33 H           3.4111    0.9854    0.0000 H       1  UNL1        0.0271
     34 H           6.3428    2.7751    0.0000 H       1  UNL1        0.0274
     35 H           5.6246    2.4891    0.0000 H       1  UNL1        0.0274
     36 H           7.8946   -0.0879    0.0000 H       1  UNL1        0.0575
     37 H           2.2446   -1.0046    0.0000 H       1  UNL1        0.0271
     38 H           2.6446   -1.6954    0.0000 H       1  UNL1        0.0271
     39 H           4.9768    1.0970    0.0000 H       1  UNL1        0.0235
     40 H           4.1831    1.4697    0.0000 H       1  UNL1        0.0235
     41 H           3.8104    0.6760    0.0000 H       1  UNL1        0.0235
     42 H           2.6507    0.5569    0.0000 H       1  UNL1        0.0266
     43 H           2.2470   -0.1318    0.0000 H       1  UNL1        0.0266
     44 H           8.3406    1.3840    0.0000 H       1  UNL1        0.0575
     45 H           3.2029   -3.1320    0.0000 H       1  UNL1        0.0562
     46 H           3.8897   -2.7274    0.0000 H       1  UNL1        0.0562
     47 H           8.0439    2.8892    0.0000 H       1  UNL1        0.0238
     48 H           7.6304    3.6624    0.0000 H       1  UNL1        0.0238
     49 H           6.8572    3.2488    0.0000 H       1  UNL1        0.0238
     50 H           3.7710   -2.8264    0.0000 H       1  UNL1        0.0236
     51 H           4.6199   -3.0459    0.0000 H       1  UNL1        0.0236
     52 H           4.8393   -2.1970    0.0000 H       1  UNL1        0.0236
     53 H           2.0000   -3.0690    0.0000 H       1  UNL1        0.2094
@<TRIPOS>BOND
     1     1    19    1
     2     1    53    1
     3     2     3    1
     4     2     5    1
     5     2    12    1
     6     2    16    1
     7     3     4    1
     8     3    11    1
     9     3    22    1
    10     4     6    1
    11     4     7    1
    12     4    14    1
    13     5     9    1
    14     5    10    1
    15     5    23    1
    16     6     8    1
    17     6    24    1
    18     6    25    1
    19     7    10    1
    20     7    26    1
    21     7    27    1
    22     8    13    1
    23     8    18    1
    24     8    20    1
    25     9    15    1
    26     9    19    1
    27     9    21    1
    28    10    28    1
    29    10    29    1
    30    11    13    1
    31    11    30    1
    32    11    31    1
    33    12    17    1
    34    12    32    1
    35    12    33    1
    36    13    34    1
    37    13    35    1
    38    14    18    2
    39    14    36    1
    40    15    17    1
    41    15    37    1
    42    15    38    1
    43    16    39    1
    44    16    40    1
    45    16    41    1
    46    17    42    1
    47    17    43    1
    48    18    44    1
    49    19    45    1
    50    19    46    1
    51    20    47    1
    52    20    48    1
    53    20    49    1
    54    21    50    1
    55    21    51    1
    56    21    52    1
