@<TRIPOS>MOLECULE
IMPHY015631
 36 35 0 0 0
SMALL
GASTEIGER

@<TRIPOS>ATOM
      1 O           7.1962    0.4400    0.0000 O.3     1  UNL1       -0.4605
      2 O           6.3301   -1.0600    0.0000 O.2     1  UNL1       -0.2508
      3 C           3.7320    0.4400    0.0000 C.3     1  UNL1       -0.0528
      4 C           4.5981   -0.0600    0.0000 C.3     1  UNL1       -0.0430
      5 C           2.8660   -0.0600    0.0000 C.3     1  UNL1       -0.0559
      6 C           5.4641    0.4400    0.0000 C.3     1  UNL1        0.0449
      7 C           2.0000    0.4400    0.0000 C.3     1  UNL1       -0.0653
      8 C           6.3301   -0.0600    0.0000 C.2     1  UNL1        0.3074
      9 C          10.6603    0.4400    0.0000 C.3     1  UNL1       -0.0349
     10 C          11.5263   -0.0600    0.0000 C.3     1  UNL1       -0.0525
     11 C           8.0622   -0.0600    0.0000 C.3     1  UNL1        0.1107
     12 C           9.7942   -0.0600    0.0000 C.2     1  UNL1       -0.0848
     13 C           8.9282    0.4400    0.0000 C.2     1  UNL1       -0.0510
     14 C          12.3923    0.4400    0.0000 C.3     1  UNL1       -0.0650
     15 H           4.1306    0.9149    0.0000 H       1  UNL1        0.0265
     16 H           3.3335    0.9149    0.0000 H       1  UNL1        0.0265
     17 H           4.1996   -0.5349    0.0000 H       1  UNL1        0.0270
     18 H           4.9966   -0.5349    0.0000 H       1  UNL1        0.0270
     19 H           2.4675   -0.5349    0.0000 H       1  UNL1        0.0263
     20 H           3.2646   -0.5349    0.0000 H       1  UNL1        0.0263
     21 H           5.8626    0.9149    0.0000 H       1  UNL1        0.0377
     22 H           5.0656    0.9149    0.0000 H       1  UNL1        0.0377
     23 H           2.3100    0.9769    0.0000 H       1  UNL1        0.0230
     24 H           1.4631    0.7500    0.0000 H       1  UNL1        0.0230
     25 H           1.6900   -0.0969    0.0000 H       1  UNL1        0.0230
     26 H          11.0588    0.9149    0.0000 H       1  UNL1        0.0307
     27 H          10.2617    0.9149    0.0000 H       1  UNL1        0.0307
     28 H          11.1278   -0.5349    0.0000 H       1  UNL1        0.0266
     29 H          11.9248   -0.5349    0.0000 H       1  UNL1        0.0266
     30 H           7.6636   -0.5349    0.0000 H       1  UNL1        0.0743
     31 H           8.4607   -0.5349    0.0000 H       1  UNL1        0.0743
     32 H           9.7942   -0.6800    0.0000 H       1  UNL1        0.0570
     33 H           8.9282    1.0600    0.0000 H       1  UNL1        0.0602
     34 H          12.7023   -0.0969    0.0000 H       1  UNL1        0.0230
     35 H          12.9292    0.7500    0.0000 H       1  UNL1        0.0230
     36 H          12.0823    0.9769    0.0000 H       1  UNL1        0.0230
@<TRIPOS>BOND
     1     1     8    1
     2     1    11    1
     3     2     8    2
     4     3     4    1
     5     3     5    1
     6     3    15    1
     7     3    16    1
     8     4     6    1
     9     4    17    1
    10     4    18    1
    11     5     7    1
    12     5    19    1
    13     5    20    1
    14     6     8    1
    15     6    21    1
    16     6    22    1
    17     7    23    1
    18     7    24    1
    19     7    25    1
    20     9    10    1
    21     9    12    1
    22     9    26    1
    23     9    27    1
    24    10    14    1
    25    10    28    1
    26    10    29    1
    27    11    13    1
    28    11    30    1
    29    11    31    1
    30    12    13    2
    31    12    32    1
    32    13    33    1
    33    14    34    1
    34    14    35    1
    35    14    36    1
