@<TRIPOS>MOLECULE
IMPHY016363
 22 21 0 0 0
SMALL
GASTEIGER

@<TRIPOS>ATOM
      1 O           3.7320   -0.7500    0.0000 O.2     1  UNL1       -0.2974
      2 C           5.4641    0.2500    0.0000 C.3     1  UNL1       -0.0466
      3 C           4.5981    0.7500    0.0000 C.3     1  UNL1        0.0058
      4 C           6.3301    0.7500    0.0000 C.3     1  UNL1       -0.0555
      5 C           3.7320    0.2500    0.0000 C.2     1  UNL1        0.1331
      6 C           2.8660    0.7500    0.0000 C.3     1  UNL1        0.0030
      7 C           7.1962    0.2500    0.0000 C.3     1  UNL1       -0.0653
      8 C           2.0000    0.2500    0.0000 C.3     1  UNL1       -0.0586
      9 H           5.0656   -0.2249    0.0000 H       1  UNL1        0.0269
     10 H           5.8626   -0.2249    0.0000 H       1  UNL1        0.0269
     11 H           4.9966    1.2250    0.0000 H       1  UNL1        0.0342
     12 H           4.1996    1.2250    0.0000 H       1  UNL1        0.0342
     13 H           6.7287    1.2250    0.0000 H       1  UNL1        0.0263
     14 H           5.9316    1.2250    0.0000 H       1  UNL1        0.0263
     15 H           3.2646    1.2250    0.0000 H       1  UNL1        0.0339
     16 H           2.4675    1.2250    0.0000 H       1  UNL1        0.0339
     17 H           6.8862   -0.2869    0.0000 H       1  UNL1        0.0230
     18 H           7.7331   -0.0600    0.0000 H       1  UNL1        0.0230
     19 H           7.5062    0.7869    0.0000 H       1  UNL1        0.0230
     20 H           1.6900    0.7869    0.0000 H       1  UNL1        0.0234
     21 H           1.4631   -0.0600    0.0000 H       1  UNL1        0.0234
     22 H           2.3100   -0.2869    0.0000 H       1  UNL1        0.0234
@<TRIPOS>BOND
     1     1     5    2
     2     2     3    1
     3     2     4    1
     4     2     9    1
     5     2    10    1
     6     3     5    1
     7     3    11    1
     8     3    12    1
     9     4     7    1
    10     4    13    1
    11     4    14    1
    12     5     6    1
    13     6     8    1
    14     6    15    1
    15     6    16    1
    16     7    17    1
    17     7    18    1
    18     7    19    1
    19     8    20    1
    20     8    21    1
    21     8    22    1
