@<TRIPOS>MOLECULE
IMPHY004728
 58 61 0 0 0
SMALL
GASTEIGER

@<TRIPOS>ATOM
      1 O           5.1350   -2.1246    0.0000 O.3     1  UNL1       -0.3221
      2 O           6.8671   -2.1246    0.0000 O.3     1  UNL1       -0.4606
      3 O           5.1350   -5.1246    0.0000 O.3     1  UNL1       -0.3863
      4 O           3.4030   -4.1246    0.0000 O.3     1  UNL1       -0.3860
      5 O           6.8671   -4.1246    0.0000 O.3     1  UNL1       -0.3829
      6 O           2.5369   -2.6246    0.0000 O.3     1  UNL1       -0.4788
      7 O           3.4030   -1.1246    0.0000 O.2     1  UNL1       -0.2480
      8 O           8.6230    0.9379    0.0000 O.2     1  UNL1       -0.4544
      9 O           5.1208    0.9546    0.0000 O.3     1  UNL1       -0.5058
     10 O           6.0308    2.4479    0.0000 O.2     1  UNL1       -0.2869
     11 O          10.3705    4.9312    0.0000 O.3     1  UNL1       -0.4913
     12 O          12.0910    1.9246    0.0000 O.3     1  UNL1       -0.4913
     13 O          12.0987    3.9246    0.0000 O.3     1  UNL1       -0.5009
     14 C           5.1350   -4.1246    0.0000 C.3     1  UNL1        0.1157
     15 C           4.2690   -3.6246    0.0000 C.3     1  UNL1        0.1202
     16 C           6.0010   -3.6246    0.0000 C.3     1  UNL1        0.1455
     17 C           4.2690   -2.6246    0.0000 C.3     1  UNL1        0.1869
     18 C           6.0010   -2.6246    0.0000 C.3     1  UNL1        0.2312
     19 C           3.4030   -2.1246    0.0000 C.2     1  UNL1        0.3367
     20 C           6.8671   -1.1246    0.0000 C.ar    1  UNL1        0.1310
     21 C           7.7671   -0.6003    0.0000 C.ar    1  UNL1        0.0235
     22 C           5.9670   -0.6003    0.0000 C.ar    1  UNL1        0.0226
     23 C           7.7551    0.4413    0.0000 C.ar    1  UNL1        0.1462
     24 C           6.8910    0.9446    0.0000 C.ar    1  UNL1        0.1055
     25 C           5.9790    0.4413    0.0000 C.ar    1  UNL1        0.1347
     26 C           6.8948    1.9446    0.0000 C.ar    1  UNL1        0.1966
     27 C           8.6269    1.9379    0.0000 C.ar    1  UNL1        0.1395
     28 C           7.7628    2.4413    0.0000 C.ar    1  UNL1        0.0288
     29 C           9.4948    2.4346    0.0000 C.ar    1  UNL1        0.0245
     30 C          10.3589    1.9313    0.0000 C.ar    1  UNL1       -0.0054
     31 C           9.4987    3.4346    0.0000 C.ar    1  UNL1       -0.0054
     32 C          10.3666    3.9312    0.0000 C.ar    1  UNL1        0.1656
     33 C          11.2269    2.4279    0.0000 C.ar    1  UNL1        0.1656
     34 C          11.2307    3.4279    0.0000 C.ar    1  UNL1        0.2010
     35 C           9.5064    5.4346    0.0000 C.3     1  UNL1        0.0790
     36 C          12.0871    0.9246    0.0000 C.3     1  UNL1        0.0790
     37 H           5.6720   -4.4346    0.0000 H       1  UNL1        0.0648
     38 H           3.7320   -3.3146    0.0000 H       1  UNL1        0.0652
     39 H           6.5380   -3.3146    0.0000 H       1  UNL1        0.0683
     40 H           4.2690   -2.0046    0.0000 H       1  UNL1        0.0742
     41 H           6.0010   -2.0046    0.0000 H       1  UNL1        0.1084
     42 H           5.6720   -5.4346    0.0000 H       1  UNL1        0.2100
     43 H           3.4030   -4.7446    0.0000 H       1  UNL1        0.2100
     44 H           7.4040   -3.8146    0.0000 H       1  UNL1        0.2102
     45 H           8.3064   -0.9061    0.0000 H       1  UNL1        0.0691
     46 H           5.4277   -0.9061    0.0000 H       1  UNL1        0.0691
     47 H           2.0000   -2.3146    0.0000 H       1  UNL1        0.2951
     48 H           7.7652    3.0613    0.0000 H       1  UNL1        0.0693
     49 H          10.3565    1.3113    0.0000 H       1  UNL1        0.0662
     50 H           8.9630    3.7466    0.0000 H       1  UNL1        0.0662
     51 H           4.5792    0.6529    0.0000 H       1  UNL1        0.2922
     52 H          12.1011    4.5446    0.0000 H       1  UNL1        0.2924
     53 H           9.8185    5.9703    0.0000 H       1  UNL1        0.0660
     54 H           8.9707    5.7466    0.0000 H       1  UNL1        0.0660
     55 H           9.1943    4.8988    0.0000 H       1  UNL1        0.0660
     56 H          11.4671    0.9270    0.0000 H       1  UNL1        0.0660
     57 H          12.0847    0.3046    0.0000 H       1  UNL1        0.0660
     58 H          12.7071    0.9222    0.0000 H       1  UNL1        0.0660
@<TRIPOS>BOND
     1     1    17    1
     2     1    18    1
     3    18     2    1
     4     2    20    1
     5    14     3    1
     6     3    42    1
     7    15     4    1
     8     4    43    1
     9     5    16    1
    10     5    44    1
    11     6    19    1
    12     6    47    1
    13     7    19    2
    14     8    23   ar
    15     8    27   ar
    16     9    25    1
    17     9    51    1
    18    10    26    2
    19    11    32    1
    20    11    35    1
    21    12    33    1
    22    12    36    1
    23    13    34    1
    24    13    52    1
    25    14    15    1
    26    14    16    1
    27    14    37    1
    28    15    17    1
    29    15    38    1
    30    16    18    1
    31    16    39    1
    32    17    19    1
    33    17    40    1
    34    18    41    1
    35    20    21   ar
    36    20    22   ar
    37    21    23   ar
    38    21    45    1
    39    22    25   ar
    40    22    46    1
    41    23    24   ar
    42    24    25   ar
    43    24    26   ar
    44    26    28   ar
    45    27    28   ar
    46    27    29    1
    47    28    48    1
    48    29    30   ar
    49    29    31   ar
    50    30    33   ar
    51    30    49    1
    52    31    32   ar
    53    31    50    1
    54    32    34   ar
    55    33    34   ar
    56    35    53    1
    57    35    54    1
    58    35    55    1
    59    36    56    1
    60    36    57    1
    61    36    58    1
