@<TRIPOS>MOLECULE
IMPHY012403
 56 58 0 0 0
SMALL
GASTEIGER

@<TRIPOS>ATOM
      1 O           7.2901    1.2847    0.0000 O.3     1  UNL1       -0.4811
      2 O           5.5301   -1.7500    0.0000 O.3     1  UNL1       -0.4808
      3 O           3.7702    1.2847    0.0000 O.2     1  UNL1       -0.4216
      4 O           2.0000    1.2741    0.0000 O.2     1  UNL1       -0.2452
      5 C           5.5301    2.2500    0.0000 C.3     1  UNL1        0.0148
      6 C           5.5301    1.2500    0.0000 C.ar    1  UNL1        0.0473
      7 C           6.3961    0.7500    0.0000 C.ar    1  UNL1        0.1399
      8 C           8.1962    0.7708    0.0000 C.3     1  UNL1        0.1235
      9 C           6.3961   -0.2500    0.0000 C.ar    1  UNL1        0.0593
     10 C           4.6641    0.7500    0.0000 C.ar    1  UNL1        0.1500
     11 C           5.5301   -0.7500    0.0000 C.ar    1  UNL1        0.1430
     12 C           4.6641   -0.2500    0.0000 C.ar    1  UNL1        0.0604
     13 C           4.5301    2.2500    0.0000 C.3     1  UNL1       -0.0521
     14 C           6.5301    2.2500    0.0000 C.3     1  UNL1       -0.0521
     15 C           8.1962   -0.2708    0.0000 C.2     1  UNL1       -0.0408
     16 C           7.2901   -0.7847    0.0000 C.2     1  UNL1       -0.0478
     17 C           5.5301    3.2500    0.0000 C.2     1  UNL1       -0.0809
     18 C           9.1962    0.7747    0.0000 C.3     1  UNL1       -0.0215
     19 C           8.6928    1.6388    0.0000 C.3     1  UNL1       -0.0215
     20 C           4.6641   -2.2500    0.0000 C.3     1  UNL1        0.1230
     21 C           3.7702   -0.7847    0.0000 C.ar    1  UNL1       -0.0408
     22 C           2.8641   -0.2708    0.0000 C.ar    1  UNL1        0.0237
     23 C           5.1641   -3.1160    0.0000 C.3     1  UNL1       -0.0215
     24 C           4.1641   -1.3840    0.0000 C.3     1  UNL1       -0.0215
     25 C           2.8641    0.7708    0.0000 C.ar    1  UNL1        0.3372
     26 C           4.6641    3.7500    0.0000 C.2     1  UNL1       -0.1018
     27 C           3.7981   -2.7500    0.0000 C.2     1  UNL1       -0.0487
     28 C           3.7981   -3.7500    0.0000 C.2     1  UNL1       -0.0989
     29 H           4.5301    2.8700    0.0000 H       1  UNL1        0.0241
     30 H           3.9101    2.2500    0.0000 H       1  UNL1        0.0241
     31 H           4.5301    1.6300    0.0000 H       1  UNL1        0.0241
     32 H           6.5301    1.6300    0.0000 H       1  UNL1        0.0241
     33 H           7.1501    2.2500    0.0000 H       1  UNL1        0.0241
     34 H           6.5301    2.8700    0.0000 H       1  UNL1        0.0241
     35 H           8.7319   -0.5829    0.0000 H       1  UNL1        0.0611
     36 H           7.2829   -1.4046    0.0000 H       1  UNL1        0.0624
     37 H           6.0671    3.5600    0.0000 H       1  UNL1        0.0575
     38 H           9.1985    0.1547    0.0000 H       1  UNL1        0.0271
     39 H           9.8162    0.7771    0.0000 H       1  UNL1        0.0271
     40 H           9.1938    1.3947    0.0000 H       1  UNL1        0.0271
     41 H           9.2310    1.3308    0.0000 H       1  UNL1        0.0271
     42 H           9.0008    2.1769    0.0000 H       1  UNL1        0.0271
     43 H           8.1547    1.9467    0.0000 H       1  UNL1        0.0271
     44 H           3.7773   -1.4046    0.0000 H       1  UNL1        0.0628
     45 H           2.3284   -0.5829    0.0000 H       1  UNL1        0.0689
     46 H           4.6272   -3.4260    0.0000 H       1  UNL1        0.0271
     47 H           5.4741   -3.6530    0.0000 H       1  UNL1        0.0271
     48 H           5.7010   -2.8060    0.0000 H       1  UNL1        0.0271
     49 H           4.7010   -1.0740    0.0000 H       1  UNL1        0.0271
     50 H           3.8541   -0.8470    0.0000 H       1  UNL1        0.0271
     51 H           3.6272   -1.6940    0.0000 H       1  UNL1        0.0271
     52 H           4.6641    4.3700    0.0000 H       1  UNL1        0.0532
     53 H           4.1272    3.4400    0.0000 H       1  UNL1        0.0532
     54 H           3.2611   -2.4400    0.0000 H       1  UNL1        0.0605
     55 H           3.2611   -4.0600    0.0000 H       1  UNL1        0.0533
     56 H           4.3350   -4.0600    0.0000 H       1  UNL1        0.0533
@<TRIPOS>BOND
     1     1     7    1
     2     1     8    1
     3     2    11    1
     4     2    20    1
     5     3    10   ar
     6     3    25   ar
     7     4    25    2
     8     5     6    1
     9     5    13    1
    10     5    14    1
    11     5    17    1
    12     6     7   ar
    13     6    10   ar
    14     7     9   ar
    15     8    15    1
    16     8    18    1
    17     8    19    1
    18     9    11   ar
    19     9    16    1
    20    10    12   ar
    21    11    12   ar
    22    12    21   ar
    23    13    29    1
    24    13    30    1
    25    13    31    1
    26    14    32    1
    27    14    33    1
    28    14    34    1
    29    15    16    2
    30    15    35    1
    31    16    36    1
    32    17    26    2
    33    17    37    1
    34    18    38    1
    35    18    39    1
    36    18    40    1
    37    19    41    1
    38    19    42    1
    39    19    43    1
    40    20    23    1
    41    20    24    1
    42    20    27    1
    43    21    22   ar
    44    21    44    1
    45    22    25   ar
    46    22    45    1
    47    23    46    1
    48    23    47    1
    49    23    48    1
    50    24    49    1
    51    24    50    1
    52    24    51    1
    53    26    52    1
    54    26    53    1
    55    27    28    2
    56    27    54    1
    57    28    55    1
    58    28    56    1
