@<TRIPOS>MOLECULE
IMPHY004105
 39 41 0 0 0
SMALL
GASTEIGER

@<TRIPOS>ATOM
      1 O           5.1482    2.1688    0.0000 O.3     1  UNL1       -0.4608
      2 O           5.7812   -1.0396    0.0000 O.3     1  UNL1       -0.3904
      3 O           4.6840   -2.5270    0.0000 O.2     1  UNL1       -0.2920
      4 O           6.8881    2.5270    0.0000 O.2     1  UNL1       -0.2505
      5 C           4.0984   -0.8500    0.0000 C.3     1  UNL1        0.0628
      6 C           5.2219    0.5588    0.0000 C.3     1  UNL1        0.0357
      7 C           3.1974   -0.4161    0.0000 C.3     1  UNL1       -0.0050
      8 C           4.9994   -0.4161    0.0000 C.3     1  UNL1        0.0750
      9 C           4.5984    1.3406    0.0000 C.3     1  UNL1        0.1093
     10 C           2.9749    0.5588    0.0000 C.3     1  UNL1       -0.0333
     11 C           3.5984    1.3406    0.0000 C.3     1  UNL1       -0.0122
     12 C           6.1517    0.9105    0.0000 C.3     1  UNL1        0.0622
     13 C           3.9624   -1.8347    0.0000 C.2     1  UNL1        0.1647
     14 C           4.9994   -1.2839    0.0000 C.3     1  UNL1       -0.0495
     15 C           2.5124   -1.1364    0.0000 C.2     1  UNL1       -0.0763
     16 C           6.1062    1.9036    0.0000 C.2     1  UNL1        0.3107
     17 C           2.0000    0.7813    0.0000 C.3     1  UNL1       -0.0617
     18 C           2.9842   -2.0114    0.0000 C.2     1  UNL1       -0.0222
     19 C           6.9872    0.3611    0.0000 C.3     1  UNL1       -0.0518
     20 H           5.8627    0.0004    0.0000 H       1  UNL1        0.0370
     21 H           2.3778   -0.1911    0.0000 H       1  UNL1        0.0356
     22 H           5.5846   -0.2113    0.0000 H       1  UNL1        0.0607
     23 H           4.1966    2.0897    0.0000 H       1  UNL1        0.0738
     24 H           2.7702    1.1440    0.0000 H       1  UNL1        0.0305
     25 H           3.7364    1.9451    0.0000 H       1  UNL1        0.0304
     26 H           3.0398    1.6096    0.0000 H       1  UNL1        0.0304
     27 H           6.6905    1.2172    0.0000 H       1  UNL1        0.0415
     28 H           4.7304   -1.8425    0.0000 H       1  UNL1        0.0240
     29 H           5.5580   -1.5529    0.0000 H       1  UNL1        0.0240
     30 H           5.2684   -0.7253    0.0000 H       1  UNL1        0.0240
     31 H           1.8978   -1.0542    0.0000 H       1  UNL1        0.0576
     32 H           2.1380    1.3858    0.0000 H       1  UNL1        0.0233
     33 H           1.3955    0.9193    0.0000 H       1  UNL1        0.0233
     34 H           1.8620    0.1769    0.0000 H       1  UNL1        0.0233
     35 H           2.7152   -2.5700    0.0000 H       1  UNL1        0.0649
     36 H           6.6466   -0.1570    0.0000 H       1  UNL1        0.0238
     37 H           7.5052    0.0204    0.0000 H       1  UNL1        0.0238
     38 H           7.3279    0.8791    0.0000 H       1  UNL1        0.0238
     39 H           6.3584   -0.8131    0.0000 H       1  UNL1        0.2098
@<TRIPOS>BOND
     1     1     9    1
     2     1    16    1
     3     8     2    1
     4     2    39    1
     5     3    13    2
     6     4    16    2
     7     5     7    1
     8     5     8    1
     9     5    13    1
    10     5    14    1
    11     6     8    1
    12     6     9    1
    13     6    12    1
    14     6    20    1
    15     7    10    1
    16     7    15    1
    17     7    21    1
    18     8    22    1
    19     9    11    1
    20     9    23    1
    21    10    11    1
    22    10    17    1
    23    10    24    1
    24    11    25    1
    25    11    26    1
    26    12    16    1
    27    12    19    1
    28    12    27    1
    29    13    18    1
    30    14    28    1
    31    14    29    1
    32    14    30    1
    33    15    18    2
    34    15    31    1
    35    17    32    1
    36    17    33    1
    37    17    34    1
    38    18    35    1
    39    19    36    1
    40    19    37    1
    41    19    38    1
