@<TRIPOS>MOLECULE
IMPHY011649
 100 101 0 0 0
SMALL
GASTEIGER

@<TRIPOS>ATOM
      1 O           6.8477    2.4151    0.0000 O.3     1  UNL1       -0.3682
      2 O           3.7601  -10.6749    0.0000 O.3     1  UNL1       -0.4542
      3 O           5.5202  -10.3961    0.0000 O.2     1  UNL1       -0.2453
      4 C           5.9342    2.0083    0.0000 C.3     1  UNL1        0.0852
      5 C           6.0387    3.0028    0.0000 C.3     1  UNL1        0.0855
      6 C           5.3464    1.1993    0.0000 C.3     1  UNL1       -0.0241
      7 C           5.6319    3.9164    0.0000 C.3     1  UNL1       -0.0207
      8 C           5.7531    0.2858    0.0000 C.3     1  UNL1       -0.0506
      9 C           6.2197    4.7254    0.0000 C.3     1  UNL1       -0.0323
     10 C           5.1653   -0.5233    0.0000 C.3     1  UNL1       -0.0530
     11 C           5.5720   -1.4368    0.0000 C.3     1  UNL1       -0.0531
     12 C           4.9843   -2.2458    0.0000 C.3     1  UNL1       -0.0531
     13 C           5.8130    5.6390    0.0000 C.2     1  UNL1       -0.0878
     14 C           5.3910   -3.1594    0.0000 C.3     1  UNL1       -0.0531
     15 C           4.8032   -3.9684    0.0000 C.3     1  UNL1       -0.0531
     16 C           6.4008    6.4480    0.0000 C.2     1  UNL1       -0.0879
     17 C           5.2100   -4.8819    0.0000 C.3     1  UNL1       -0.0531
     18 C           7.3953    6.3434    0.0000 C.3     1  UNL1       -0.0348
     19 C           4.6222   -5.6909    0.0000 C.3     1  UNL1       -0.0530
     20 C           7.9831    7.1525    0.0000 C.3     1  UNL1       -0.0496
     21 C           8.9776    7.0479    0.0000 C.3     1  UNL1       -0.0528
     22 C           5.0289   -6.6045    0.0000 C.3     1  UNL1       -0.0528
     23 C           9.5654    7.8570    0.0000 C.3     1  UNL1       -0.0530
     24 C          10.5599    7.7524    0.0000 C.3     1  UNL1       -0.0531
     25 C           4.4411   -7.4135    0.0000 C.3     1  UNL1       -0.0488
     26 C          11.1477    8.5614    0.0000 C.3     1  UNL1       -0.0531
     27 C          12.1422    8.4569    0.0000 C.3     1  UNL1       -0.0531
     28 C          12.7300    9.2659    0.0000 C.3     1  UNL1       -0.0531
     29 C           4.8479   -8.3270    0.0000 C.3     1  UNL1       -0.0211
     30 C          13.7245    9.1614    0.0000 C.3     1  UNL1       -0.0531
     31 C           4.2601   -9.1361    0.0000 C.2     1  UNL1        0.0361
     32 C          14.3123    9.9704    0.0000 C.3     1  UNL1       -0.0533
     33 C          15.3068    9.8659    0.0000 C.3     1  UNL1       -0.0559
     34 C           3.2601   -9.1361    0.0000 C.2     1  UNL1       -0.0343
     35 C           2.9511  -10.0871    0.0000 C.3     1  UNL1        0.1195
     36 C           4.5691  -10.0871    0.0000 C.2     1  UNL1        0.3355
     37 C          15.8946   10.6749    0.0000 C.3     1  UNL1       -0.0653
     38 C           2.0000  -10.3961    0.0000 C.3     1  UNL1       -0.0240
     39 H           6.3243    1.5265    0.0000 H       1  UNL1        0.0622
     40 H           6.5205    3.3930    0.0000 H       1  UNL1        0.0622
     41 H           4.9157    1.6453    0.0000 H       1  UNL1        0.0291
     42 H           4.8324    0.8526    0.0000 H       1  UNL1        0.0291
     43 H           5.2012    4.3624    0.0000 H       1  UNL1        0.0294
     44 H           5.1179    3.5697    0.0000 H       1  UNL1        0.0294
     45 H           6.1838   -0.1602    0.0000 H       1  UNL1        0.0266
     46 H           6.2671    0.6325    0.0000 H       1  UNL1        0.0266
     47 H           6.6504    4.2794    0.0000 H       1  UNL1        0.0308
     48 H           6.7337    5.0721    0.0000 H       1  UNL1        0.0308
     49 H           4.7346   -0.0773    0.0000 H       1  UNL1        0.0265
     50 H           4.6513   -0.8700    0.0000 H       1  UNL1        0.0265
     51 H           6.0027   -1.8828    0.0000 H       1  UNL1        0.0265
     52 H           6.0861   -1.0901    0.0000 H       1  UNL1        0.0265
     53 H           4.5536   -1.7998    0.0000 H       1  UNL1        0.0265
     54 H           4.4703   -2.5925    0.0000 H       1  UNL1        0.0265
     55 H           5.1964    5.7038    0.0000 H       1  UNL1        0.0569
     56 H           5.8217   -3.6054    0.0000 H       1  UNL1        0.0265
     57 H           5.9050   -2.8127    0.0000 H       1  UNL1        0.0265
     58 H           4.3725   -3.5224    0.0000 H       1  UNL1        0.0265
     59 H           4.2892   -4.3151    0.0000 H       1  UNL1        0.0265
     60 H           6.1486    7.0144    0.0000 H       1  UNL1        0.0569
     61 H           5.6406   -5.3279    0.0000 H       1  UNL1        0.0265
     62 H           5.7240   -4.5352    0.0000 H       1  UNL1        0.0265
     63 H           7.2244    5.7475    0.0000 H       1  UNL1        0.0307
     64 H           7.9526    6.0717    0.0000 H       1  UNL1        0.0307
     65 H           4.1915   -5.2450    0.0000 H       1  UNL1        0.0265
     66 H           4.1082   -6.0376    0.0000 H       1  UNL1        0.0265
     67 H           8.1540    7.7484    0.0000 H       1  UNL1        0.0268
     68 H           7.4258    7.4242    0.0000 H       1  UNL1        0.0268
     69 H           8.8067    6.4520    0.0000 H       1  UNL1        0.0265
     70 H           9.5349    6.7761    0.0000 H       1  UNL1        0.0265
     71 H           5.4596   -7.0505    0.0000 H       1  UNL1        0.0265
     72 H           5.5429   -6.2578    0.0000 H       1  UNL1        0.0265
     73 H           9.7363    8.4529    0.0000 H       1  UNL1        0.0265
     74 H           9.0081    8.1287    0.0000 H       1  UNL1        0.0265
     75 H          10.3890    7.1564    0.0000 H       1  UNL1        0.0265
     76 H          11.1172    7.4806    0.0000 H       1  UNL1        0.0265
     77 H           4.0104   -6.9675    0.0000 H       1  UNL1        0.0268
     78 H           3.9271   -7.7602    0.0000 H       1  UNL1        0.0268
     79 H          11.3186    9.1574    0.0000 H       1  UNL1        0.0265
     80 H          10.5904    8.8332    0.0000 H       1  UNL1        0.0265
     81 H          11.9713    7.8609    0.0000 H       1  UNL1        0.0265
     82 H          12.6995    8.1851    0.0000 H       1  UNL1        0.0265
     83 H          12.9009    9.8619    0.0000 H       1  UNL1        0.0265
     84 H          12.1728    9.5377    0.0000 H       1  UNL1        0.0265
     85 H           5.2786   -8.7730    0.0000 H       1  UNL1        0.0315
     86 H           5.3619   -7.9804    0.0000 H       1  UNL1        0.0315
     87 H          13.5536    8.5654    0.0000 H       1  UNL1        0.0265
     88 H          14.2818    8.8896    0.0000 H       1  UNL1        0.0265
     89 H          14.4832   10.5664    0.0000 H       1  UNL1        0.0265
     90 H          13.7551   10.2422    0.0000 H       1  UNL1        0.0265
     91 H          15.1359    9.2699    0.0000 H       1  UNL1        0.0263
     92 H          15.8641    9.5941    0.0000 H       1  UNL1        0.0263
     93 H           2.8956   -8.6345    0.0000 H       1  UNL1        0.0613
     94 H           2.8541  -10.6995    0.0000 H       1  UNL1        0.0777
     95 H          16.3962   10.3105    0.0000 H       1  UNL1        0.0230
     96 H          16.2590   11.1765    0.0000 H       1  UNL1        0.0230
     97 H          15.3930   11.0393    0.0000 H       1  UNL1        0.0230
     98 H           1.8084   -9.8065    0.0000 H       1  UNL1        0.0268
     99 H           1.4103  -10.5877    0.0000 H       1  UNL1        0.0268
    100 H           2.1916  -10.9858    0.0000 H       1  UNL1        0.0268
@<TRIPOS>BOND
     1     1     4    1
     2     1     5    1
     3     2    35    1
     4     2    36    1
     5     3    36    2
     6     4     5    1
     7     4     6    1
     8     4    39    1
     9     5     7    1
    10     5    40    1
    11     6     8    1
    12     6    41    1
    13     6    42    1
    14     7     9    1
    15     7    43    1
    16     7    44    1
    17     8    10    1
    18     8    45    1
    19     8    46    1
    20     9    13    1
    21     9    47    1
    22     9    48    1
    23    10    11    1
    24    10    49    1
    25    10    50    1
    26    11    12    1
    27    11    51    1
    28    11    52    1
    29    12    14    1
    30    12    53    1
    31    12    54    1
    32    13    16    2
    33    13    55    1
    34    14    15    1
    35    14    56    1
    36    14    57    1
    37    15    17    1
    38    15    58    1
    39    15    59    1
    40    16    18    1
    41    16    60    1
    42    17    19    1
    43    17    61    1
    44    17    62    1
    45    18    20    1
    46    18    63    1
    47    18    64    1
    48    19    22    1
    49    19    65    1
    50    19    66    1
    51    20    21    1
    52    20    67    1
    53    20    68    1
    54    21    23    1
    55    21    69    1
    56    21    70    1
    57    22    25    1
    58    22    71    1
    59    22    72    1
    60    23    24    1
    61    23    73    1
    62    23    74    1
    63    24    26    1
    64    24    75    1
    65    24    76    1
    66    25    29    1
    67    25    77    1
    68    25    78    1
    69    26    27    1
    70    26    79    1
    71    26    80    1
    72    27    28    1
    73    27    81    1
    74    27    82    1
    75    28    30    1
    76    28    83    1
    77    28    84    1
    78    29    31    1
    79    29    85    1
    80    29    86    1
    81    30    32    1
    82    30    87    1
    83    30    88    1
    84    31    34    2
    85    31    36    1
    86    32    33    1
    87    32    89    1
    88    32    90    1
    89    33    37    1
    90    33    91    1
    91    33    92    1
    92    34    35    1
    93    34    93    1
    94    35    38    1
    95    35    94    1
    96    37    95    1
    97    37    96    1
    98    37    97    1
    99    38    98    1
   100    38    99    1
   101    38   100    1
