@<TRIPOS>MOLECULE
IMPHY008496
 67 72 0 0 0
SMALL
GASTEIGER

@<TRIPOS>ATOM
      1 O          10.4781   -1.6068    0.0000 O.3     1  UNL1       -0.4870
      2 O           6.9059   -1.8368    0.0000 O.3     1  UNL1       -0.4811
      3 O           8.6658    1.1979    0.0000 O.3     1  UNL1       -0.5060
      4 O           5.1357    0.2221    0.0000 O.3     1  UNL1       -0.3875
      5 O          11.0617   -2.5341    0.0000 O.3     1  UNL1       -0.5063
      6 O          14.0617   -0.8021    0.0000 O.3     1  UNL1       -0.5063
      7 O          13.0564    2.3161    0.0000 O.3     1  UNL1       -0.5033
      8 O          11.7207    3.8047    0.0000 O.3     1  UNL1       -0.5033
      9 O           2.5357   -1.3363    0.0000 O.3     1  UNL1       -0.5033
     10 O          14.0617   -4.2662    0.0000 O.3     1  UNL1       -0.5065
     11 O           2.5434   -3.3362    0.0000 O.3     1  UNL1       -0.5033
     12 C          10.4781    0.0026    0.0000 C.3     1  UNL1        0.0535
     13 C          11.0617   -0.8021    0.0000 C.3     1  UNL1        0.1153
     14 C           9.5319   -0.3021    0.0000 C.ar    1  UNL1        0.0470
     15 C           9.5319   -1.3021    0.0000 C.ar    1  UNL1        0.1318
     16 C           7.7998   -0.3021    0.0000 C.ar    1  UNL1        0.0387
     17 C          12.0617   -0.8021    0.0000 C.3     1  UNL1        0.0173
     18 C           8.6658    0.1979    0.0000 C.ar    1  UNL1        0.1309
     19 C           6.9059    0.2326    0.0000 C.3     1  UNL1        0.0092
     20 C          10.7888    0.9532    0.0000 C.ar    1  UNL1       -0.0325
     21 C           5.9998   -0.2813    0.0000 C.3     1  UNL1        0.1004
     22 C           7.7998   -1.3021    0.0000 C.ar    1  UNL1        0.1317
     23 C           5.9998   -1.3229    0.0000 C.3     1  UNL1        0.1513
     24 C           8.6658   -1.8021    0.0000 C.ar    1  UNL1        0.0226
     25 C          12.5617   -1.6681    0.0000 C.ar    1  UNL1        0.0391
     26 C           5.1357   -1.8262    0.0000 C.ar    1  UNL1       -0.0012
     27 C          11.7673    1.1594    0.0000 C.ar    1  UNL1       -0.0126
     28 C          10.1209    1.6975    0.0000 C.ar    1  UNL1       -0.0542
     29 C          12.0617   -2.5341    0.0000 C.ar    1  UNL1        0.1271
     30 C          13.5617   -1.6681    0.0000 C.ar    1  UNL1        0.1271
     31 C          12.0779    2.1099    0.0000 C.ar    1  UNL1        0.1585
     32 C          10.4316    2.6480    0.0000 C.ar    1  UNL1       -0.0163
     33 C           4.2678   -1.3296    0.0000 C.ar    1  UNL1       -0.0098
     34 C           5.1396   -2.8262    0.0000 C.ar    1  UNL1       -0.0513
     35 C          11.4101    2.8542    0.0000 C.ar    1  UNL1        0.1582
     36 C          12.5617   -3.4002    0.0000 C.ar    1  UNL1        0.0218
     37 C          14.0617   -2.5341    0.0000 C.ar    1  UNL1        0.0218
     38 C           3.4037   -1.8329    0.0000 C.ar    1  UNL1        0.1586
     39 C           4.2755   -3.3296    0.0000 C.ar    1  UNL1       -0.0162
     40 C          13.5617   -3.4002    0.0000 C.ar    1  UNL1        0.1238
     41 C           3.4075   -2.8329    0.0000 C.ar    1  UNL1        0.1582
     42 H          11.0906    0.0988    0.0000 H       1  UNL1        0.0436
     43 H          11.3434   -1.3544    0.0000 H       1  UNL1        0.0746
     44 H          12.6443   -0.5900    0.0000 H       1  UNL1        0.0352
     45 H          11.9540   -0.1915    0.0000 H       1  UNL1        0.0352
     46 H           7.3105    0.7024    0.0000 H       1  UNL1        0.0342
     47 H           6.5122    0.7116    0.0000 H       1  UNL1        0.0342
     48 H           5.4623   -0.5902    0.0000 H       1  UNL1        0.0637
     49 H           5.4623   -1.0139    0.0000 H       1  UNL1        0.0811
     50 H           8.6658   -2.4221    0.0000 H       1  UNL1        0.0691
     51 H          12.1813    0.6979    0.0000 H       1  UNL1        0.0658
     52 H           9.5142    1.5696    0.0000 H       1  UNL1        0.0622
     53 H           8.1289    1.5079    0.0000 H       1  UNL1        0.2922
     54 H           5.1381    0.8421    0.0000 H       1  UNL1        0.2100
     55 H          10.0175    3.1094    0.0000 H       1  UNL1        0.0655
     56 H           4.2654   -0.7096    0.0000 H       1  UNL1        0.0659
     57 H           5.6777   -3.1342    0.0000 H       1  UNL1        0.0623
     58 H          12.2517   -3.9371    0.0000 H       1  UNL1        0.0691
     59 H          14.6817   -2.5341    0.0000 H       1  UNL1        0.0691
     60 H           4.2779   -3.9496    0.0000 H       1  UNL1        0.0655
     61 H          10.7517   -3.0711    0.0000 H       1  UNL1        0.2921
     62 H          14.6817   -0.8021    0.0000 H       1  UNL1        0.2921
     63 H          13.2490    2.9054    0.0000 H       1  UNL1        0.2923
     64 H          11.3067    4.2662    0.0000 H       1  UNL1        0.2923
     65 H           2.0000   -1.6483    0.0000 H       1  UNL1        0.2923
     66 H          14.6817   -4.2662    0.0000 H       1  UNL1        0.2921
     67 H           2.5458   -3.9562    0.0000 H       1  UNL1        0.2923
@<TRIPOS>BOND
     1     1    13    1
     2     1    15    1
     3     2    22    1
     4     2    23    1
     5     3    18    1
     6     3    53    1
     7    21     4    1
     8     4    54    1
     9     5    29    1
    10     5    61    1
    11     6    30    1
    12     6    62    1
    13     7    31    1
    14     7    63    1
    15     8    35    1
    16     8    64    1
    17     9    38    1
    18     9    65    1
    19    10    40    1
    20    10    66    1
    21    11    41    1
    22    11    67    1
    23    12    13    1
    24    12    14    1
    25    12    20    1
    26    12    42    1
    27    13    17    1
    28    13    43    1
    29    14    15   ar
    30    14    18   ar
    31    15    24   ar
    32    16    18   ar
    33    16    19    1
    34    16    22   ar
    35    17    25    1
    36    17    44    1
    37    17    45    1
    38    19    21    1
    39    19    46    1
    40    19    47    1
    41    20    27   ar
    42    20    28   ar
    43    21    23    1
    44    21    48    1
    45    22    24   ar
    46    23    26    1
    47    23    49    1
    48    24    50    1
    49    25    29   ar
    50    25    30   ar
    51    26    33   ar
    52    26    34   ar
    53    27    31   ar
    54    27    51    1
    55    28    32   ar
    56    28    52    1
    57    29    36   ar
    58    30    37   ar
    59    31    35   ar
    60    32    35   ar
    61    32    55    1
    62    33    38   ar
    63    33    56    1
    64    34    39   ar
    65    34    57    1
    66    36    40   ar
    67    36    58    1
    68    37    40   ar
    69    37    59    1
    70    38    41   ar
    71    39    41   ar
    72    39    60    1
