@<TRIPOS>MOLECULE
IMPHY004671
 27 27 0 0 0
SMALL
GASTEIGER

@<TRIPOS>ATOM
      1 O           2.0000   -2.1900    0.0000 O.3     1  UNL1       -0.3904
      2 C           2.8660    1.3100    0.0000 C.3     1  UNL1       -0.0168
      3 C           2.8660    2.3100    0.0000 C.3     1  UNL1       -0.0402
      4 C           2.0000    0.8100    0.0000 C.3     1  UNL1       -0.0276
      5 C           3.7320    0.8100    0.0000 C.2     1  UNL1       -0.0801
      6 C           3.7320    2.8100    0.0000 C.3     1  UNL1       -0.0621
      7 C           2.0000    2.8100    0.0000 C.3     1  UNL1       -0.0621
      8 C           2.0000   -0.1900    0.0000 C.2     1  UNL1       -0.0781
      9 C           2.8660   -0.6900    0.0000 C.2     1  UNL1       -0.0264
     10 C           3.7320   -0.1900    0.0000 C.2     1  UNL1       -0.0603
     11 C           2.8660   -1.6900    0.0000 C.3     1  UNL1        0.0689
     12 H           3.4030    1.6200    0.0000 H       1  UNL1        0.0348
     13 H           2.8660    2.9300    0.0000 H       1  UNL1        0.0301
     14 H           1.7880    1.3926    0.0000 H       1  UNL1        0.0313
     15 H           1.3894    0.7023    0.0000 H       1  UNL1        0.0313
     16 H           4.2690    1.1200    0.0000 H       1  UNL1        0.0575
     17 H           4.0420    2.2731    0.0000 H       1  UNL1        0.0233
     18 H           4.2690    3.1200    0.0000 H       1  UNL1        0.0233
     19 H           3.4220    3.3469    0.0000 H       1  UNL1        0.0233
     20 H           2.3100    3.3469    0.0000 H       1  UNL1        0.0233
     21 H           1.4631    3.1200    0.0000 H       1  UNL1        0.0233
     22 H           1.6900    2.2731    0.0000 H       1  UNL1        0.0233
     23 H           1.4631   -0.5000    0.0000 H       1  UNL1        0.0576
     24 H           4.2690   -0.5000    0.0000 H       1  UNL1        0.0618
     25 H           3.0781   -2.2726    0.0000 H       1  UNL1        0.0607
     26 H           3.4766   -1.5823    0.0000 H       1  UNL1        0.0607
     27 H           2.0000   -2.8100    0.0000 H       1  UNL1        0.2098
@<TRIPOS>BOND
     1     1    11    1
     2     1    27    1
     3     2     3    1
     4     2     4    1
     5     2     5    1
     6     2    12    1
     7     3     6    1
     8     3     7    1
     9     3    13    1
    10     4     8    1
    11     4    14    1
    12     4    15    1
    13     5    10    2
    14     5    16    1
    15     6    17    1
    16     6    18    1
    17     6    19    1
    18     7    20    1
    19     7    21    1
    20     7    22    1
    21     8     9    2
    22     8    23    1
    23     9    10    1
    24     9    11    1
    25    10    24    1
    26    11    25    1
    27    11    26    1
