@<TRIPOS>MOLECULE
IMPHY005943
 29 31 0 0 0
SMALL
GASTEIGER

@<TRIPOS>ATOM
      1 O           5.5301   -1.4279    0.0000 O.2     1  UNL1       -0.4618
      2 O           3.7817    1.6067    0.0000 O.3     1  UNL1       -0.5058
      3 O           5.5301    1.5721    0.0000 O.2     1  UNL1       -0.2863
      4 O           2.0000   -1.4521    0.0000 O.3     1  UNL1       -0.5065
      5 C           4.6641    0.0721    0.0000 C.ar    1  UNL1        0.1060
      6 C           6.3961    0.0721    0.0000 C.ar    1  UNL1        0.0644
      7 C           4.6641   -0.9279    0.0000 C.ar    1  UNL1        0.1454
      8 C           5.5301    0.5721    0.0000 C.ar    1  UNL1        0.2037
      9 C           7.2622    0.5721    0.0000 C.ar    1  UNL1       -0.0113
     10 C           3.7702    0.6067    0.0000 C.ar    1  UNL1        0.1347
     11 C           6.3961   -0.9279    0.0000 C.ar    1  UNL1        0.1038
     12 C           3.7702   -1.4626    0.0000 C.ar    1  UNL1        0.0231
     13 C           2.8641    0.0929    0.0000 C.ar    1  UNL1        0.0223
     14 C           2.8641   -0.9487    0.0000 C.ar    1  UNL1        0.1239
     15 C           8.1282    0.0721    0.0000 C.ar    1  UNL1       -0.0538
     16 C           7.2622    1.5721    0.0000 C.ar    1  UNL1       -0.0538
     17 C           8.9942    0.5721    0.0000 C.ar    1  UNL1       -0.0612
     18 C           8.1282    2.0721    0.0000 C.ar    1  UNL1       -0.0612
     19 C           8.9942    1.5721    0.0000 C.ar    1  UNL1       -0.0617
     20 H           6.9331   -1.2379    0.0000 H       1  UNL1        0.1037
     21 H           3.7773   -2.0826    0.0000 H       1  UNL1        0.0691
     22 H           2.3284    0.4050    0.0000 H       1  UNL1        0.0691
     23 H           8.1282   -0.5479    0.0000 H       1  UNL1        0.0624
     24 H           6.7252    1.8821    0.0000 H       1  UNL1        0.0624
     25 H           9.5312    0.2621    0.0000 H       1  UNL1        0.0618
     26 H           8.1282    2.6921    0.0000 H       1  UNL1        0.0618
     27 H           9.5312    1.8821    0.0000 H       1  UNL1        0.0618
     28 H           3.2484    1.9229    0.0000 H       1  UNL1        0.2922
     29 H           2.0024   -2.0721    0.0000 H       1  UNL1        0.2921
@<TRIPOS>BOND
     1     1     7   ar
     2     1    11   ar
     3     2    10    1
     4     2    28    1
     5     3     8    2
     6     4    14    1
     7     4    29    1
     8     5     7   ar
     9     5     8   ar
    10     5    10   ar
    11     6     8   ar
    12     6     9    1
    13     6    11   ar
    14     7    12   ar
    15     9    15   ar
    16     9    16   ar
    17    10    13   ar
    18    11    20    1
    19    12    14   ar
    20    12    21    1
    21    13    14   ar
    22    13    22    1
    23    15    17   ar
    24    15    23    1
    25    16    18   ar
    26    16    24    1
    27    17    19   ar
    28    17    25    1
    29    18    19   ar
    30    18    26    1
    31    19    27    1
