@<TRIPOS>MOLECULE
IMPHY004798
 19 19 0 0 0
SMALL
GASTEIGER

@<TRIPOS>ATOM
      1 O           4.7867    0.8634    0.0000 O.3     1  UNL1       -0.4793
      2 O           3.3854    1.8815    0.0000 O.2     1  UNL1       -0.2489
      3 N           3.7044   -1.3799    0.0000 N.3     1  UNL1       -0.3136
      4 N           2.6166    0.9680    0.0000 N.3     1  UNL1       -0.3148
      5 C           3.2044    0.1589    0.0000 C.3     1  UNL1        0.1282
      6 C           2.3954   -0.4288    0.0000 C.3     1  UNL1       -0.0107
      7 C           4.0134   -0.4288    0.0000 C.3     1  UNL1        0.0244
      8 C           2.7044   -1.3799    0.0000 C.3     1  UNL1       -0.0018
      9 C           3.7922    0.9680    0.0000 C.2     1  UNL1        0.3262
     10 H           2.0854    0.1081    0.0000 H       1  UNL1        0.0301
     11 H           1.8290   -0.6810    0.0000 H       1  UNL1        0.0301
     12 H           4.5798   -0.6810    0.0000 H       1  UNL1        0.0447
     13 H           4.3234    0.1081    0.0000 H       1  UNL1        0.0447
     14 H           2.0979   -1.5088    0.0000 H       1  UNL1        0.0425
     15 H           2.7692   -1.9965    0.0000 H       1  UNL1        0.0425
     16 H           4.0688   -1.8815    0.0000 H       1  UNL1        0.1220
     17 H           2.0000    0.9031    0.0000 H       1  UNL1        0.1192
     18 H           2.8688    1.5344    0.0000 H       1  UNL1        0.1192
     19 H           5.1511    1.3650    0.0000 H       1  UNL1        0.2951
@<TRIPOS>BOND
     1     1     9    1
     2     1    19    1
     3     2     9    2
     4     3     7    1
     5     3     8    1
     6     3    16    1
     7     5     4    1
     8     4    17    1
     9     4    18    1
    10     5     6    1
    11     5     7    1
    12     5     9    1
    13     6     8    1
    14     6    10    1
    15     6    11    1
    16     7    12    1
    17     7    13    1
    18     8    14    1
    19     8    15    1
