@<TRIPOS>MOLECULE
IMPHY005404
 67 70 0 0 0
SMALL
GASTEIGER

@<TRIPOS>ATOM
      1 N          10.1642    2.0916    0.0000 N.3     1  UNL1       -0.3054
      2 N           2.5357   -2.4222    0.0000 N.3     1  UNL1       -0.3272
      3 C           7.9288   -0.3698    0.0000 C.3     1  UNL1       -0.0322
      4 C           7.9288    0.6302    0.0000 C.3     1  UNL1       -0.0247
      5 C           7.0628   -0.8698    0.0000 C.3     1  UNL1       -0.0344
      6 C           6.1968   -0.3698    0.0000 C.3     1  UNL1       -0.0323
      7 C           5.2868   -0.8767    0.0000 C.3     1  UNL1       -0.0260
      8 C           8.8750    0.9349    0.0000 C.3     1  UNL1       -0.0200
      9 C           5.2787   -1.9183    0.0000 C.3     1  UNL1       -0.0340
     10 C           7.0628    1.1302    0.0000 C.3     1  UNL1       -0.0468
     11 C           6.1968    0.6302    0.0000 C.3     1  UNL1       -0.0489
     12 C           8.8750   -0.6746    0.0000 C.3     1  UNL1       -0.0491
     13 C           7.0789   -1.9113    0.0000 C.3     1  UNL1       -0.0494
     14 C           9.4586    0.1302    0.0000 C.3     1  UNL1       -0.0480
     15 C           6.1808   -2.4391    0.0000 C.3     1  UNL1       -0.0494
     16 C           4.3599   -0.3126    0.0000 C.3     1  UNL1       -0.0457
     17 C           7.9288    1.6302    0.0000 C.3     1  UNL1       -0.0590
     18 C           4.3433   -2.4680    0.0000 C.3     1  UNL1       -0.0344
     19 C           9.1857    1.8854    0.0000 C.3     1  UNL1        0.0103
     20 C           5.2945    0.1233    0.0000 C.3     1  UNL1       -0.0590
     21 C           3.4120   -0.8405    0.0000 C.3     1  UNL1       -0.0372
     22 C           3.4037   -1.9255    0.0000 C.3     1  UNL1        0.0051
     23 C           8.5179    2.6297    0.0000 C.3     1  UNL1       -0.0492
     24 C          10.4749    3.0422    0.0000 C.3     1  UNL1       -0.0128
     25 C          10.8321    1.3473    0.0000 C.3     1  UNL1       -0.0128
     26 H           8.0188   -1.2151    0.0000 H       1  UNL1        0.0309
     27 H           7.8022   -1.2892    0.0000 H       1  UNL1        0.0306
     28 H           6.9329    0.0552    0.0000 H       1  UNL1        0.0309
     29 H           9.7148    1.0668    0.0000 H       1  UNL1        0.0321
     30 H           5.2820   -2.7683    0.0000 H       1  UNL1        0.0307
     31 H           7.4613    1.6051    0.0000 H       1  UNL1        0.0271
     32 H           6.6643    1.6051    0.0000 H       1  UNL1        0.0271
     33 H           5.9847    1.2128    0.0000 H       1  UNL1        0.0268
     34 H           5.5862    0.5225    0.0000 H       1  UNL1        0.0268
     35 H           8.6240   -1.2415    0.0000 H       1  UNL1        0.0268
     36 H           9.4124   -0.9838    0.0000 H       1  UNL1        0.0268
     37 H           7.2969   -2.4917    0.0000 H       1  UNL1        0.0268
     38 H           7.6880   -1.7958    0.0000 H       1  UNL1        0.0268
     39 H           9.9195   -0.2846    0.0000 H       1  UNL1        0.0269
     40 H           9.9195    0.5449    0.0000 H       1  UNL1        0.0269
     41 H           5.7835   -2.9151    0.0000 H       1  UNL1        0.0268
     42 H           6.5818   -2.9120    0.0000 H       1  UNL1        0.0268
     43 H           4.7681    0.1541    0.0000 H       1  UNL1        0.0271
     44 H           3.9700    0.1694    0.0000 H       1  UNL1        0.0271
     45 H           8.5488    1.6302    0.0000 H       1  UNL1        0.0235
     46 H           7.9288    2.2502    0.0000 H       1  UNL1        0.0235
     47 H           7.3088    1.6302    0.0000 H       1  UNL1        0.0235
     48 H           3.9460   -2.9440    0.0000 H       1  UNL1        0.0283
     49 H           4.7443   -2.9409    0.0000 H       1  UNL1        0.0283
     50 H           9.3783    2.4747    0.0000 H       1  UNL1        0.0462
     51 H           5.9145    0.1185    0.0000 H       1  UNL1        0.0235
     52 H           5.2993    0.7433    0.0000 H       1  UNL1        0.0235
     53 H           4.6745    0.1281    0.0000 H       1  UNL1        0.0235
     54 H           3.2075   -0.2553    0.0000 H       1  UNL1        0.0280
     55 H           2.8004   -0.9419    0.0000 H       1  UNL1        0.0280
     56 H           3.4025   -2.5455    0.0000 H       1  UNL1        0.0458
     57 H           8.9793    3.0438    0.0000 H       1  UNL1        0.0245
     58 H           8.1038    3.0912    0.0000 H       1  UNL1        0.0245
     59 H           8.0564    2.2157    0.0000 H       1  UNL1        0.0245
     60 H           2.0000   -2.1101    0.0000 H       1  UNL1        0.1185
     61 H           2.5334   -3.0422    0.0000 H       1  UNL1        0.1185
     62 H          11.0642    2.8495    0.0000 H       1  UNL1        0.0391
     63 H          10.6675    3.6315    0.0000 H       1  UNL1        0.0391
     64 H           9.8856    3.2348    0.0000 H       1  UNL1        0.0391
     65 H          10.3706    0.9333    0.0000 H       1  UNL1        0.0391
     66 H          11.2461    0.8859    0.0000 H       1  UNL1        0.0391
     67 H          11.2935    1.7614    0.0000 H       1  UNL1        0.0391
@<TRIPOS>BOND
     1    19     1    1
     2     1    24    1
     3     1    25    1
     4    22     2    1
     5     2    60    1
     6     2    61    1
     7     3     4    1
     8     3     5    1
     9     3    12    1
    10     3    26    1
    11     4     8    1
    12     4    10    1
    13     4    17    1
    14     5     6    1
    15     5    13    1
    16     5    27    1
    17     6     7    1
    18     6    11    1
    19     6    28    1
    20     7     9    1
    21     7    16    1
    22     7    20    1
    23     8    14    1
    24     8    19    1
    25     8    29    1
    26     9    15    1
    27     9    18    1
    28     9    30    1
    29    10    11    1
    30    10    31    1
    31    10    32    1
    32    11    33    1
    33    11    34    1
    34    12    14    1
    35    12    35    1
    36    12    36    1
    37    13    15    1
    38    13    37    1
    39    13    38    1
    40    14    39    1
    41    14    40    1
    42    15    41    1
    43    15    42    1
    44    16    21    1
    45    16    43    1
    46    16    44    1
    47    17    45    1
    48    17    46    1
    49    17    47    1
    50    18    22    1
    51    18    48    1
    52    18    49    1
    53    19    23    1
    54    19    50    1
    55    20    51    1
    56    20    52    1
    57    20    53    1
    58    21    22    1
    59    21    54    1
    60    21    55    1
    61    22    56    1
    62    23    57    1
    63    23    58    1
    64    23    59    1
    65    24    62    1
    66    24    63    1
    67    24    64    1
    68    25    65    1
    69    25    66    1
    70    25    67    1
