@<TRIPOS>MOLECULE
IMPHY005573
 95 100 0 0 0
SMALL
GASTEIGER

@<TRIPOS>ATOM
      1 O           6.0010    0.5724    0.0000 O.3     1  UNL1       -0.3366
      2 O           4.2690    0.5724    0.0000 O.3     1  UNL1       -0.3405
      3 O           6.0010   -1.4276    0.0000 O.3     1  UNL1       -0.3378
      4 O           6.8671    3.0724    0.0000 O.3     1  UNL1       -0.3313
      5 O           5.1350   -2.9276    0.0000 O.3     1  UNL1       -0.3405
      6 O           4.2690   -2.4276    0.0000 O.3     1  UNL1       -0.3864
      7 O           2.5369   -1.4276    0.0000 O.3     1  UNL1       -0.3865
      8 O           4.2690    1.5724    0.0000 O.3     1  UNL1       -0.3863
      9 O           7.7331    1.5724    0.0000 O.3     1  UNL1       -0.4532
     10 O           4.2690    3.5724    0.0000 O.3     1  UNL1       -0.3865
     11 O           7.7331   -2.4276    0.0000 O.3     1  UNL1       -0.3841
     12 O           7.7331   -4.4276    0.0000 O.3     1  UNL1       -0.3864
     13 O           6.0010   -5.4276    0.0000 O.3     1  UNL1       -0.3865
     14 O           2.5369    1.5724    0.0000 O.3     1  UNL1       -0.3924
     15 O           5.1350    5.0724    0.0000 O.3     1  UNL1       -0.3924
     16 O           3.4030   -3.9276    0.0000 O.3     1  UNL1       -0.3924
     17 O          10.3312    2.0724    0.0000 O.2     1  UNL1       -0.4507
     18 O           7.7331    3.5724    0.0000 O.2     1  UNL1       -0.2830
     19 O           8.5773    5.1039    0.0000 O.3     1  UNL1       -0.5058
     20 O          12.1171    5.1175    0.0000 O.3     1  UNL1       -0.5065
     21 O          11.1972   -1.4276    0.0000 O.3     1  UNL1       -0.5033
     22 O           9.4651   -2.4276    0.0000 O.3     1  UNL1       -0.5033
     23 C           5.1350   -0.9276    0.0000 C.3     1  UNL1        0.1406
     24 C           5.1350    0.0725    0.0000 C.3     1  UNL1        0.1890
     25 C           4.2690   -1.4276    0.0000 C.3     1  UNL1        0.1144
     26 C           3.4030   -0.9276    0.0000 C.3     1  UNL1        0.1119
     27 C           6.0010    1.5724    0.0000 C.3     1  UNL1        0.1519
     28 C           3.4030    0.0725    0.0000 C.3     1  UNL1        0.1130
     29 C           5.1350    2.0724    0.0000 C.3     1  UNL1        0.1155
     30 C           6.0010   -2.4276    0.0000 C.3     1  UNL1        0.1885
     31 C           5.1350    3.0724    0.0000 C.3     1  UNL1        0.1120
     32 C           6.8671    2.0724    0.0000 C.3     1  UNL1        0.2315
     33 C           6.8671   -2.9276    0.0000 C.3     1  UNL1        0.1341
     34 C           6.0010    3.5724    0.0000 C.3     1  UNL1        0.1140
     35 C           6.8671   -3.9276    0.0000 C.3     1  UNL1        0.1141
     36 C           6.0010   -4.4276    0.0000 C.3     1  UNL1        0.1119
     37 C           5.1350   -3.9276    0.0000 C.3     1  UNL1        0.1130
     38 C           2.5369    0.5724    0.0000 C.3     1  UNL1        0.0730
     39 C           6.0010    4.5724    0.0000 C.3     1  UNL1        0.0731
     40 C           4.2690   -4.4276    0.0000 C.3     1  UNL1        0.0730
     41 C           8.5991    2.0724    0.0000 C.ar    1  UNL1        0.2138
     42 C           9.4651    1.5724    0.0000 C.ar    1  UNL1        0.1810
     43 C           8.5991    3.0724    0.0000 C.ar    1  UNL1        0.2382
     44 C           9.4651    3.5724    0.0000 C.ar    1  UNL1        0.1092
     45 C           9.4651    0.5724    0.0000 C.ar    1  UNL1        0.0247
     46 C          10.3312    3.0724    0.0000 C.ar    1  UNL1        0.1465
     47 C           9.4491    4.6140    0.0000 C.ar    1  UNL1        0.1348
     48 C          11.2412    3.5793    0.0000 C.ar    1  UNL1        0.0231
     49 C          10.3312    0.0725    0.0000 C.ar    1  UNL1       -0.0057
     50 C           8.5991    0.0725    0.0000 C.ar    1  UNL1       -0.0473
     51 C          10.3471    5.1417    0.0000 C.ar    1  UNL1        0.0223
     52 C          11.2492    4.6209    0.0000 C.ar    1  UNL1        0.1239
     53 C          10.3312   -0.9276    0.0000 C.ar    1  UNL1        0.1589
     54 C           8.5991   -0.9276    0.0000 C.ar    1  UNL1       -0.0159
     55 C           9.4651   -1.4276    0.0000 C.ar    1  UNL1        0.1583
     56 H           5.1350   -1.5476    0.0000 H       1  UNL1        0.0675
     57 H           5.1350    0.6924    0.0000 H       1  UNL1        0.0938
     58 H           3.7320   -1.7376    0.0000 H       1  UNL1        0.0648
     59 H           3.4030   -1.5476    0.0000 H       1  UNL1        0.0647
     60 H           5.4641    1.2624    0.0000 H       1  UNL1        0.0687
     61 H           3.4030    0.6924    0.0000 H       1  UNL1        0.0647
     62 H           4.5981    2.3824    0.0000 H       1  UNL1        0.0648
     63 H           6.5380   -2.1176    0.0000 H       1  UNL1        0.0938
     64 H           5.1350    3.6924    0.0000 H       1  UNL1        0.0647
     65 H           6.8671    1.4524    0.0000 H       1  UNL1        0.1084
     66 H           7.4040   -3.2376    0.0000 H       1  UNL1        0.0671
     67 H           6.5380    3.8824    0.0000 H       1  UNL1        0.0647
     68 H           6.8671   -4.5476    0.0000 H       1  UNL1        0.0648
     69 H           6.5380   -4.7376    0.0000 H       1  UNL1        0.0647
     70 H           4.5981   -3.6176    0.0000 H       1  UNL1        0.0647
     71 H           1.9264    0.6801    0.0000 H       1  UNL1        0.0584
     72 H           2.3249   -0.0102    0.0000 H       1  UNL1        0.0584
     73 H           3.7320   -2.7376    0.0000 H       1  UNL1        0.2100
     74 H           6.6116    4.4648    0.0000 H       1  UNL1        0.0584
     75 H           6.2131    5.1551    0.0000 H       1  UNL1        0.0584
     76 H           2.0000   -1.1176    0.0000 H       1  UNL1        0.2100
     77 H           3.8705   -4.9025    0.0000 H       1  UNL1        0.0584
     78 H           4.6675   -4.9025    0.0000 H       1  UNL1        0.0584
     79 H           3.7320    1.8824    0.0000 H       1  UNL1        0.2100
     80 H           4.2690    4.1924    0.0000 H       1  UNL1        0.2100
     81 H           8.2700   -2.7376    0.0000 H       1  UNL1        0.2101
     82 H           7.7331   -5.0476    0.0000 H       1  UNL1        0.2100
     83 H           5.4641   -5.7376    0.0000 H       1  UNL1        0.2100
     84 H           2.0000    1.8824    0.0000 H       1  UNL1        0.2095
     85 H           5.1350    5.6924    0.0000 H       1  UNL1        0.2095
     86 H           2.8660   -4.2376    0.0000 H       1  UNL1        0.2095
     87 H          11.7745    3.2631    0.0000 H       1  UNL1        0.0691
     88 H          10.8681    0.3824    0.0000 H       1  UNL1        0.0662
     89 H           8.0622    0.3824    0.0000 H       1  UNL1        0.0626
     90 H          10.3447    5.7617    0.0000 H       1  UNL1        0.0691
     91 H           8.0622   -1.2376    0.0000 H       1  UNL1        0.0655
     92 H           8.5702    5.7239    0.0000 H       1  UNL1        0.2922
     93 H          12.1195    5.7376    0.0000 H       1  UNL1        0.2921
     94 H          11.7341   -1.1176    0.0000 H       1  UNL1        0.2923
     95 H          10.0021   -2.7376    0.0000 H       1  UNL1        0.2923
@<TRIPOS>BOND
     1    24     1    1
     2    27     1    1
     3     2    24    1
     4     2    28    1
     5    23     3    1
     6    30     3    1
     7     4    32    1
     8     4    34    1
     9     5    30    1
    10     5    37    1
    11    25     6    1
    12     6    73    1
    13    26     7    1
    14     7    76    1
    15    29     8    1
    16     8    79    1
    17    32     9    1
    18     9    41    1
    19    31    10    1
    20    10    80    1
    21    33    11    1
    22    11    81    1
    23    35    12    1
    24    12    82    1
    25    36    13    1
    26    13    83    1
    27    14    38    1
    28    14    84    1
    29    15    39    1
    30    15    85    1
    31    16    40    1
    32    16    86    1
    33    17    42   ar
    34    17    46   ar
    35    18    43    2
    36    19    47    1
    37    19    92    1
    38    20    52    1
    39    20    93    1
    40    21    53    1
    41    21    94    1
    42    22    55    1
    43    22    95    1
    44    23    24    1
    45    23    25    1
    46    23    56    1
    47    24    57    1
    48    25    26    1
    49    25    58    1
    50    26    28    1
    51    26    59    1
    52    27    29    1
    53    27    32    1
    54    27    60    1
    55    28    38    1
    56    28    61    1
    57    29    31    1
    58    29    62    1
    59    30    33    1
    60    30    63    1
    61    31    34    1
    62    31    64    1
    63    32    65    1
    64    33    35    1
    65    33    66    1
    66    34    39    1
    67    34    67    1
    68    35    36    1
    69    35    68    1
    70    36    37    1
    71    36    69    1
    72    37    40    1
    73    37    70    1
    74    38    71    1
    75    38    72    1
    76    39    74    1
    77    39    75    1
    78    40    77    1
    79    40    78    1
    80    41    42   ar
    81    41    43   ar
    82    42    45    1
    83    43    44   ar
    84    44    46   ar
    85    44    47   ar
    86    45    49   ar
    87    45    50   ar
    88    46    48   ar
    89    47    51   ar
    90    48    52   ar
    91    48    87    1
    92    49    53   ar
    93    49    88    1
    94    50    54   ar
    95    50    89    1
    96    51    52   ar
    97    51    90    1
    98    53    55   ar
    99    54    55   ar
   100    54    91    1
