@<TRIPOS>MOLECULE
IMPHY007490
 88 92 0 0 0
SMALL
GASTEIGER

@<TRIPOS>ATOM
      1 O          13.1249   -1.5259    0.0000 O.3     1  UNL1       -0.3877
      2 O          10.4671   -3.0743    0.0000 O.3     1  UNL1       -0.4571
      3 O           7.7318   -2.5782    0.0000 O.3     1  UNL1       -0.4594
      4 O           9.1647    0.0908    0.0000 O.2     1  UNL1       -0.3003
      5 O          14.0246    3.4242    0.0000 O.2     1  UNL1       -0.4303
      6 O          12.1991   -3.0876    0.0000 O.2     1  UNL1       -0.2511
      7 O           6.8716   -1.0749    0.0000 O.2     1  UNL1       -0.2478
      8 O          15.3138    4.5809    0.0000 O.2     1  UNL1       -0.2452
      9 O           5.9960   -3.5715    0.0000 O.3     1  UNL1       -0.3783
     10 O           5.1396   -1.0682    0.0000 O.3     1  UNL1       -0.3860
     11 O           4.2639   -3.5648    0.0000 O.3     1  UNL1       -0.3866
     12 O           2.5357   -2.5582    0.0000 O.3     1  UNL1       -0.3894
     13 C          13.1249   -0.5259    0.0000 C.3     1  UNL1        0.0751
     14 C          12.2589   -1.0259    0.0000 C.3     1  UNL1       -0.0076
     15 C          11.3929   -0.5259    0.0000 C.3     1  UNL1       -0.0198
     16 C          13.1249    0.4741    0.0000 C.3     1  UNL1        0.0039
     17 C          10.4829   -1.0327    0.0000 C.3     1  UNL1        0.0690
     18 C          10.4749   -2.0743    0.0000 C.3     1  UNL1        0.1291
     19 C          11.3929    0.4741    0.0000 C.3     1  UNL1       -0.0483
     20 C          12.2589    0.9741    0.0000 C.3     1  UNL1       -0.0442
     21 C          14.0712    0.7788    0.0000 C.3     1  UNL1       -0.0049
     22 C          12.2750   -2.0674    0.0000 C.3     1  UNL1       -0.0437
     23 C          14.0712   -0.8306    0.0000 C.3     1  UNL1       -0.0226
     24 C          11.3769   -2.5951    0.0000 C.3     1  UNL1       -0.0114
     25 C          14.6548   -0.0259    0.0000 C.3     1  UNL1       -0.0429
     26 C           9.5561   -0.4686    0.0000 C.3     1  UNL1       -0.0336
     27 C           9.5394   -2.6240    0.0000 C.3     1  UNL1        0.0253
     28 C          13.1249    1.4741    0.0000 C.3     1  UNL1       -0.0564
     29 C           8.6082   -0.9966    0.0000 C.3     1  UNL1       -0.0145
     30 C           8.5998   -2.0816    0.0000 C.3     1  UNL1        0.1068
     31 C          10.1481   -0.0904    0.0000 C.2     1  UNL1        0.1305
     32 C          14.3818    1.7294    0.0000 C.ar    1  UNL1       -0.0085
     33 C          15.3603    1.9356    0.0000 C.ar    1  UNL1       -0.0486
     34 C          13.7140    2.4737    0.0000 C.ar    1  UNL1        0.0994
     35 C          11.3293   -3.5810    0.0000 C.2     1  UNL1        0.3045
     36 C          15.6710    2.8861    0.0000 C.ar    1  UNL1        0.0233
     37 C           6.8678   -2.0749    0.0000 C.2     1  UNL1        0.3390
     38 C          11.3216   -4.5809    0.0000 C.3     1  UNL1        0.0333
     39 C          15.0031    3.6304    0.0000 C.ar    1  UNL1        0.3367
     40 C           5.9998   -2.5715    0.0000 C.3     1  UNL1        0.1800
     41 C           5.1357   -2.0682    0.0000 C.3     1  UNL1        0.1196
     42 C           4.2678   -2.5649    0.0000 C.3     1  UNL1        0.1095
     43 C           3.4037   -2.0615    0.0000 C.3     1  UNL1        0.0808
     44 C           3.4075   -1.0615    0.0000 C.3     1  UNL1       -0.0364
     45 H          12.9983   -1.4452    0.0000 H       1  UNL1        0.0332
     46 H          12.1290   -0.1009    0.0000 H       1  UNL1        0.0315
     47 H          11.1808    1.0567    0.0000 H       1  UNL1        0.0269
     48 H          10.7823    0.3665    0.0000 H       1  UNL1        0.0269
     49 H          12.6574    1.4491    0.0000 H       1  UNL1        0.0272
     50 H          11.8604    1.4491    0.0000 H       1  UNL1        0.0272
     51 H          14.6836    0.8750    0.0000 H       1  UNL1        0.0356
     52 H          12.4930   -2.6478    0.0000 H       1  UNL1        0.0270
     53 H          12.8841   -1.9519    0.0000 H       1  UNL1        0.0270
     54 H          13.8201   -1.3975    0.0000 H       1  UNL1        0.0293
     55 H          14.6085   -1.1398    0.0000 H       1  UNL1        0.0293
     56 H          10.9796   -3.0711    0.0000 H       1  UNL1        0.0304
     57 H          11.7779   -3.0680    0.0000 H       1  UNL1        0.0304
     58 H          15.1156   -0.4406    0.0000 H       1  UNL1        0.0272
     59 H          15.1156    0.3888    0.0000 H       1  UNL1        0.0272
     60 H           9.9642   -0.0020    0.0000 H       1  UNL1        0.0277
     61 H           9.1661    0.0134    0.0000 H       1  UNL1        0.0277
     62 H           9.1421   -3.1000    0.0000 H       1  UNL1        0.0340
     63 H           9.9404   -3.0970    0.0000 H       1  UNL1        0.0340
     64 H          13.7449    1.4741    0.0000 H       1  UNL1        0.0236
     65 H          13.1249    2.0941    0.0000 H       1  UNL1        0.0236
     66 H          12.5049    1.4741    0.0000 H       1  UNL1        0.0236
     67 H           8.4036   -0.4113    0.0000 H       1  UNL1        0.0301
     68 H           7.9965   -1.0980    0.0000 H       1  UNL1        0.0301
     69 H           8.5986   -2.7016    0.0000 H       1  UNL1        0.0735
     70 H          10.5503    0.3814    0.0000 H       1  UNL1        0.1033
     71 H          13.6619   -1.8359    0.0000 H       1  UNL1        0.2102
     72 H          15.7744    1.4741    0.0000 H       1  UNL1        0.0623
     73 H          13.1073    2.3458    0.0000 H       1  UNL1        0.1033
     74 H          16.2777    3.0140    0.0000 H       1  UNL1        0.0689
     75 H          10.7016   -4.5762    0.0000 H       1  UNL1        0.0342
     76 H          11.3168   -5.2009    0.0000 H       1  UNL1        0.0342
     77 H          11.9416   -4.5857    0.0000 H       1  UNL1        0.0342
     78 H           5.4617   -2.8795    0.0000 H       1  UNL1        0.0738
     79 H           5.6738   -1.7603    0.0000 H       1  UNL1        0.0652
     80 H           5.4578   -3.8795    0.0000 H       1  UNL1        0.2106
     81 H           3.7296   -2.8728    0.0000 H       1  UNL1        0.0646
     82 H           4.6038   -0.7561    0.0000 H       1  UNL1        0.2100
     83 H           2.8680   -1.7495    0.0000 H       1  UNL1        0.0617
     84 H           3.7258   -3.8728    0.0000 H       1  UNL1        0.2100
     85 H           4.0275   -1.0639    0.0000 H       1  UNL1        0.0255
     86 H           3.4099   -0.4415    0.0000 H       1  UNL1        0.0255
     87 H           2.7875   -1.0592    0.0000 H       1  UNL1        0.0255
     88 H           2.0000   -2.2461    0.0000 H       1  UNL1        0.2099
@<TRIPOS>BOND
     1    13     1    1
     2     1    71    1
     3    18     2    1
     4     2    35    1
     5    30     3    1
     6     3    37    1
     7     4    31    2
     8     5    34   ar
     9     5    39   ar
    10     6    35    2
    11     7    37    2
    12     8    39    2
    13    40     9    1
    14     9    80    1
    15    41    10    1
    16    10    82    1
    17    42    11    1
    18    11    84    1
    19    43    12    1
    20    12    88    1
    21    13    14    1
    22    13    16    1
    23    13    23    1
    24    14    15    1
    25    14    22    1
    26    14    45    1
    27    15    17    1
    28    15    19    1
    29    15    46    1
    30    16    20    1
    31    16    21    1
    32    16    28    1
    33    17    18    1
    34    17    26    1
    35    17    31    1
    36    18    24    1
    37    18    27    1
    38    19    20    1
    39    19    47    1
    40    19    48    1
    41    20    49    1
    42    20    50    1
    43    21    25    1
    44    21    32    1
    45    21    51    1
    46    22    24    1
    47    22    52    1
    48    22    53    1
    49    23    25    1
    50    23    54    1
    51    23    55    1
    52    24    56    1
    53    24    57    1
    54    25    58    1
    55    25    59    1
    56    26    29    1
    57    26    60    1
    58    26    61    1
    59    27    30    1
    60    27    62    1
    61    27    63    1
    62    28    64    1
    63    28    65    1
    64    28    66    1
    65    29    30    1
    66    29    67    1
    67    29    68    1
    68    30    69    1
    69    31    70    1
    70    32    33   ar
    71    32    34   ar
    72    33    36   ar
    73    33    72    1
    74    34    73    1
    75    35    38    1
    76    36    39   ar
    77    36    74    1
    78    37    40    1
    79    38    75    1
    80    38    76    1
    81    38    77    1
    82    40    41    1
    83    40    78    1
    84    41    42    1
    85    41    79    1
    86    42    43    1
    87    42    81    1
    88    43    44    1
    89    43    83    1
    90    44    85    1
    91    44    86    1
    92    44    87    1
