@<TRIPOS>MOLECULE
IMPHY006857
 33 36 0 0 0
SMALL
GASTEIGER

@<TRIPOS>ATOM
      1 O           2.3597   -0.1730    0.0000 O.3     1  UNL1       -0.3490
      2 O           4.1473    1.4365    0.0000 O.3     1  UNL1       -0.4516
      3 O           2.7624    2.5580    0.0000 O.2     1  UNL1       -0.2475
      4 O           4.2518   -1.5580    0.0000 O.3     1  UNL1       -0.4946
      5 O           7.7438   -1.5926    0.0000 O.2     1  UNL1       -0.4220
      6 O           9.5140   -1.5821    0.0000 O.2     1  UNL1       -0.2452
      7 C           2.6691    0.7784    0.0000 C.3     1  UNL1        0.1928
      8 C           3.3383    0.0353    0.0000 C.3     1  UNL1        0.1402
      9 C           4.2518    0.4420    0.0000 C.3     1  UNL1        0.1608
     10 C           3.1691    1.6444    0.0000 C.2     1  UNL1        0.3426
     11 C           2.0000    1.5216    0.0000 C.3     1  UNL1       -0.0226
     12 C           5.1178   -0.0580    0.0000 C.ar    1  UNL1        0.0378
     13 C           5.1178   -1.0580    0.0000 C.ar    1  UNL1        0.1304
     14 C           5.9839    0.4420    0.0000 C.ar    1  UNL1       -0.0408
     15 C           6.8499   -0.0580    0.0000 C.ar    1  UNL1        0.0182
     16 C           5.9839   -1.5580    0.0000 C.ar    1  UNL1        0.0235
     17 C           6.8499   -1.0580    0.0000 C.ar    1  UNL1        0.1425
     18 C           7.7438    0.4767    0.0000 C.ar    1  UNL1       -0.0443
     19 C           8.6499   -0.0372    0.0000 C.ar    1  UNL1        0.0236
     20 C           4.2518   -2.5580    0.0000 C.3     1  UNL1        0.0788
     21 C           8.6499   -1.0788    0.0000 C.ar    1  UNL1        0.3372
     22 H           3.6010   -0.7731    0.0000 H       1  UNL1        0.0672
     23 H           4.9647    0.9050    0.0000 H       1  UNL1        0.0814
     24 H           2.4608    1.9364    0.0000 H       1  UNL1        0.0264
     25 H           1.5851    1.9823    0.0000 H       1  UNL1        0.0264
     26 H           1.5392    1.1067    0.0000 H       1  UNL1        0.0264
     27 H           5.9839    1.0620    0.0000 H       1  UNL1        0.0630
     28 H           5.9839   -2.1780    0.0000 H       1  UNL1        0.0691
     29 H           7.7367    1.0966    0.0000 H       1  UNL1        0.0627
     30 H           9.1856    0.2749    0.0000 H       1  UNL1        0.0689
     31 H           3.6318   -2.5580    0.0000 H       1  UNL1        0.0660
     32 H           4.2518   -3.1780    0.0000 H       1  UNL1        0.0660
     33 H           4.8718   -2.5580    0.0000 H       1  UNL1        0.0660
@<TRIPOS>BOND
     1     1     7    1
     2     1     8    1
     3     2     9    1
     4     2    10    1
     5     3    10    2
     6     4    13    1
     7     4    20    1
     8     5    17   ar
     9     5    21   ar
    10     6    21    2
    11     7     8    1
    12     7    10    1
    13     7    11    1
    14     8     9    1
    15     8    22    1
    16     9    12    1
    17     9    23    1
    18    11    24    1
    19    11    25    1
    20    11    26    1
    21    12    13   ar
    22    12    14   ar
    23    13    16   ar
    24    14    15   ar
    25    14    27    1
    26    15    17   ar
    27    15    18   ar
    28    16    17   ar
    29    16    28    1
    30    18    19   ar
    31    18    29    1
    32    19    21   ar
    33    19    30    1
    34    20    31    1
    35    20    32    1
    36    20    33    1
