@<TRIPOS>MOLECULE
IMPHY010670
 20 23 0 0 0
SMALL
GASTEIGER

@<TRIPOS>ATOM
      1 N           1.1063   -4.3685    0.0000 N.3     1  UNL1       -0.2757
      2 C           1.1063   -5.6445    0.0000 C.3     1  UNL1        0.0720
      3 C           2.2063   -6.2857    0.0000 C.3     1  UNL1        0.0171
      4 C           3.3125   -5.6445    0.0000 C.3     1  UNL1        0.0012
      5 C           3.3125   -4.3685    0.0000 C.3     1  UNL1        0.0213
      6 C           4.4063   -3.7400    0.0000 C.3     1  UNL1        0.1494
      7 C           4.4063   -2.4640    0.0000 C.3     1  UNL1        0.0324
      8 C           3.3125   -1.8354    0.0000 C.3     1  UNL1        0.0001
      9 C           2.2063   -2.4640    0.0000 C.3     1  UNL1       -0.0068
     10 C           2.2063   -3.7400    0.0000 C.3     1  UNL1        0.0408
     11 C           1.5023   -3.2308    0.0000 C.3     1  UNL1        0.0142
     12 C           1.5023   -0.5594    0.0000 C.3     1  UNL1        0.0013
     13 C           3.3125   -0.5594    0.0000 C.3     1  UNL1       -0.0001
     14 C           0.0000   -3.7400    0.0000 C.3     1  UNL1        0.0720
     15 C           0.0000   -2.4640    0.0000 C.3     1  UNL1        0.0171
     16 C           1.1063   -1.8354    0.0000 C.3     1  UNL1       -0.0013
     17 O           5.5062   -4.3685    0.0000 O.3     1  UNL1       -0.2234
     18 C           0.5846    0.0000    0.0000 C.3     1  UNL1        0.0000
     19 H           2.2063   -1.1880    0.0000 H       1  UNL1        0.0331
     20 H           4.4063   -5.0097    0.0000 H       1  UNL1        0.0355
@<TRIPOS>BOND
     1     1    10    1
     2     1    14    1
     3     1     2    1
     4     2     3    1
     5     3     4    1
     6     4     5    1
     7     5    10    1
     8     5     6    1
     9     5    20    1
    10     6     7    1
    11     6    17    1
    12     8     7    1
    13     8     9    1
    14     8    13    1
    15     9    16    1
    16     9    10    1
    17     9    19    1
    18    10    11    1
    19    11    12    1
    20    12    13    1
    21    12    18    1
    22    14    15    1
    23    15    16    1
