@<TRIPOS>MOLECULE
IMPHY005965
 44 47 0 0 0
SMALL
GASTEIGER

@<TRIPOS>ATOM
      1 O           2.9182   -0.1320    0.0000 O.3     1  UNL1       -0.4907
      2 O           4.3455   -3.3713    0.0000 O.3     1  UNL1       -0.4907
      3 O           2.6884   -2.1673    0.0000 O.3     1  UNL1       -0.4885
      4 O           7.5698    1.1846    0.0000 O.2     1  UNL1       -0.4905
      5 O           7.1518    2.9828    0.0000 O.2     1  UNL1       -0.2799
      6 O           5.4874    3.7815    0.0000 O.2     1  UNL1       -0.2837
      7 N           7.1527   -0.8511    0.0000 N.ar    1  UNL1       -0.3600
      8 C           5.4874   -0.9079    0.0000 C.ar    1  UNL1        0.0211
      9 C           4.6784   -0.3201    0.0000 C.ar    1  UNL1        0.0381
     10 C           6.2964   -0.3201    0.0000 C.ar    1  UNL1        0.0593
     11 C           4.9874    0.6310    0.0000 C.ar    1  UNL1       -0.0007
     12 C           5.9874    0.6310    0.0000 C.ar    1  UNL1        0.0523
     13 C           5.3945   -1.9454    0.0000 C.ar    1  UNL1        0.0316
     14 C           3.7204   -0.7291    0.0000 C.ar    1  UNL1        0.1735
     15 C           4.4462   -2.3764    0.0000 C.ar    1  UNL1        0.1730
     16 C           3.6035   -1.7641    0.0000 C.ar    1  UNL1        0.2048
     17 C           6.2981   -2.3910    0.0000 C.ar    1  UNL1       -0.0344
     18 C           6.5937    1.4019    0.0000 C.2     1  UNL1        0.1801
     19 C           4.3810    1.4019    0.0000 C.2     1  UNL1       -0.0494
     20 C           7.1535   -1.8586    0.0000 C.ar    1  UNL1        0.0028
     21 C           6.3716    2.3572    0.0000 C.2     1  UNL1        0.2671
     22 C           4.6031    2.3572    0.0000 C.2     1  UNL1       -0.0103
     23 C           5.4874    2.7815    0.0000 C.2     1  UNL1        0.2290
     24 C           2.0000   -0.5281    0.0000 C.3     1  UNL1        0.0790
     25 C           3.4335   -3.7815    0.0000 C.3     1  UNL1        0.0790
     26 C           2.5800   -3.1614    0.0000 C.3     1  UNL1        0.0791
     27 C           8.2460    1.9213    0.0000 C.3     1  UNL1        0.0790
     28 H           7.6943   -0.5493    0.0000 H       1  UNL1        0.1654
     29 H           6.3286   -3.0103    0.0000 H       1  UNL1        0.0639
     30 H           3.7758    1.2672    0.0000 H       1  UNL1        0.0625
     31 H           7.6956   -2.1595    0.0000 H       1  UNL1        0.0807
     32 H           4.1194    2.7450    0.0000 H       1  UNL1        0.0657
     33 H           1.7544    0.0412    0.0000 H       1  UNL1        0.0660
     34 H           1.4307   -0.7737    0.0000 H       1  UNL1        0.0660
     35 H           2.2456   -1.0974    0.0000 H       1  UNL1        0.0660
     36 H           3.1792   -3.2161    0.0000 H       1  UNL1        0.0660
     37 H           2.8681   -4.0359    0.0000 H       1  UNL1        0.0660
     38 H           3.6879   -4.3470    0.0000 H       1  UNL1        0.0660
     39 H           1.9637   -3.0942    0.0000 H       1  UNL1        0.0660
     40 H           2.5128   -3.7778    0.0000 H       1  UNL1        0.0660
     41 H           3.1964   -3.2286    0.0000 H       1  UNL1        0.0660
     42 H           8.7028    1.5020    0.0000 H       1  UNL1        0.0660
     43 H           8.6653    2.3780    0.0000 H       1  UNL1        0.0660
     44 H           7.7893    2.3406    0.0000 H       1  UNL1        0.0660
@<TRIPOS>BOND
     1     1    14    1
     2     1    24    1
     3     2    15    1
     4     2    25    1
     5     3    16    1
     6     3    26    1
     7     4    18    1
     8     4    27    1
     9     5    21    2
    10     6    23    2
    11     7    10   ar
    12     7    20   ar
    13     7    28    1
    14     8     9   ar
    15     8    10    2
    16     8    13   ar
    17     9    11   ar
    18     9    14   ar
    19    10    12   ar
    20    11    12   ar
    21    11    19    1
    22    12    18    2
    23    13    15   ar
    24    13    17   ar
    25    14    16   ar
    26    15    16   ar
    27    17    20   ar
    28    17    29    1
    29    18    21    1
    30    19    22    2
    31    19    30    1
    32    20    31    1
    33    21    23    1
    34    22    23    1
    35    22    32    1
    36    24    33    1
    37    24    34    1
    38    24    35    1
    39    25    36    1
    40    25    37    1
    41    25    38    1
    42    26    39    1
    43    26    40    1
    44    26    41    1
    45    27    42    1
    46    27    43    1
    47    27    44    1
