@<TRIPOS>MOLECULE
IMPHY005769
 180 179 0 0 0
SMALL
GASTEIGER

@<TRIPOS>ATOM
      1 O          28.8468    0.8100    0.0000 O.3     1  UNL1       -0.4556
      2 O          26.2487    0.3100    0.0000 O.3     1  UNL1       -0.4608
      3 O          29.7128   -0.6900    0.0000 O.2     1  UNL1       -0.2508
      4 O          25.3827    1.8100    0.0000 O.2     1  UNL1       -0.2509
      5 O          27.1147   -1.1900    0.0000 O.3     1  UNL1       -0.3912
      6 C          40.9711    0.8100    0.0000 C.3     1  UNL1       -0.0531
      7 C          41.8372    0.3100    0.0000 C.3     1  UNL1       -0.0531
      8 C          13.2583    0.8100    0.0000 C.3     1  UNL1       -0.0531
      9 C          14.1244    0.3100    0.0000 C.3     1  UNL1       -0.0531
     10 C          40.1051    0.3100    0.0000 C.3     1  UNL1       -0.0531
     11 C          42.7032    0.8100    0.0000 C.3     1  UNL1       -0.0531
     12 C          12.3923    0.3100    0.0000 C.3     1  UNL1       -0.0531
     13 C          14.9904    0.8100    0.0000 C.3     1  UNL1       -0.0531
     14 C          39.2391    0.8100    0.0000 C.3     1  UNL1       -0.0531
     15 C          43.5692    0.3100    0.0000 C.3     1  UNL1       -0.0531
     16 C          11.5263    0.8100    0.0000 C.3     1  UNL1       -0.0531
     17 C          15.8564    0.3100    0.0000 C.3     1  UNL1       -0.0531
     18 C          38.3731    0.3100    0.0000 C.3     1  UNL1       -0.0531
     19 C          44.4352    0.8100    0.0000 C.3     1  UNL1       -0.0531
     20 C          10.6603    0.3100    0.0000 C.3     1  UNL1       -0.0531
     21 C          16.7224    0.8100    0.0000 C.3     1  UNL1       -0.0531
     22 C          37.5070    0.8100    0.0000 C.3     1  UNL1       -0.0531
     23 C          45.3013    0.3100    0.0000 C.3     1  UNL1       -0.0531
     24 C           9.7942    0.8100    0.0000 C.3     1  UNL1       -0.0531
     25 C          17.5885    0.3100    0.0000 C.3     1  UNL1       -0.0531
     26 C          36.6410    0.3100    0.0000 C.3     1  UNL1       -0.0531
     27 C          46.1673    0.8100    0.0000 C.3     1  UNL1       -0.0531
     28 C           8.9282    0.3100    0.0000 C.3     1  UNL1       -0.0531
     29 C          18.4545    0.8100    0.0000 C.3     1  UNL1       -0.0531
     30 C          35.7750    0.8100    0.0000 C.3     1  UNL1       -0.0531
     31 C          47.0333    0.3100    0.0000 C.3     1  UNL1       -0.0531
     32 C           8.0622    0.8100    0.0000 C.3     1  UNL1       -0.0531
     33 C          19.3205    0.3100    0.0000 C.3     1  UNL1       -0.0531
     34 C          47.8993    0.8100    0.0000 C.3     1  UNL1       -0.0531
     35 C           7.1962    0.3100    0.0000 C.3     1  UNL1       -0.0531
     36 C          34.9090    0.3100    0.0000 C.3     1  UNL1       -0.0531
     37 C          20.1865    0.8100    0.0000 C.3     1  UNL1       -0.0531
     38 C          48.7654    0.3100    0.0000 C.3     1  UNL1       -0.0531
     39 C           6.3301    0.8100    0.0000 C.3     1  UNL1       -0.0531
     40 C          34.0429    0.8100    0.0000 C.3     1  UNL1       -0.0531
     41 C          21.0526    0.3100    0.0000 C.3     1  UNL1       -0.0531
     42 C          49.6314    0.8100    0.0000 C.3     1  UNL1       -0.0531
     43 C           5.4641    0.3100    0.0000 C.3     1  UNL1       -0.0531
     44 C          33.1769    0.3100    0.0000 C.3     1  UNL1       -0.0530
     45 C          21.9186    0.8100    0.0000 C.3     1  UNL1       -0.0530
     46 C          50.4974    0.3100    0.0000 C.3     1  UNL1       -0.0531
     47 C           4.5981    0.8100    0.0000 C.3     1  UNL1       -0.0531
     48 C          32.3109    0.8100    0.0000 C.3     1  UNL1       -0.0526
     49 C          22.7846    0.3100    0.0000 C.3     1  UNL1       -0.0526
     50 C          51.3634    0.8100    0.0000 C.3     1  UNL1       -0.0533
     51 C           3.7320    0.3100    0.0000 C.3     1  UNL1       -0.0533
     52 C          31.4449    0.3100    0.0000 C.3     1  UNL1       -0.0430
     53 C          23.6506    0.8100    0.0000 C.3     1  UNL1       -0.0430
     54 C          52.2295    0.3100    0.0000 C.3     1  UNL1       -0.0559
     55 C           2.8660    0.8100    0.0000 C.3     1  UNL1       -0.0559
     56 C          30.5788    0.8100    0.0000 C.3     1  UNL1        0.0450
     57 C          24.5167    0.3100    0.0000 C.3     1  UNL1        0.0449
     58 C          53.0955    0.8100    0.0000 C.3     1  UNL1       -0.0653
     59 C           2.0000    0.3100    0.0000 C.3     1  UNL1       -0.0653
     60 C          29.7128    0.3100    0.0000 C.2     1  UNL1        0.3075
     61 C          25.3827    0.8100    0.0000 C.2     1  UNL1        0.3072
     62 C          27.9808    0.3100    0.0000 C.3     1  UNL1        0.1597
     63 C          27.1147    0.8100    0.0000 C.3     1  UNL1        0.1315
     64 C          27.9808   -0.6900    0.0000 C.3     1  UNL1        0.0844
     65 H          41.3697    1.2850    0.0000 H       1  UNL1        0.0265
     66 H          40.5726    1.2850    0.0000 H       1  UNL1        0.0265
     67 H          41.4386   -0.1649    0.0000 H       1  UNL1        0.0265
     68 H          42.2357   -0.1649    0.0000 H       1  UNL1        0.0265
     69 H          13.6569    1.2850    0.0000 H       1  UNL1        0.0265
     70 H          12.8598    1.2850    0.0000 H       1  UNL1        0.0265
     71 H          13.7258   -0.1649    0.0000 H       1  UNL1        0.0265
     72 H          14.5229   -0.1649    0.0000 H       1  UNL1        0.0265
     73 H          39.7066   -0.1649    0.0000 H       1  UNL1        0.0265
     74 H          40.5036   -0.1649    0.0000 H       1  UNL1        0.0265
     75 H          43.1017    1.2850    0.0000 H       1  UNL1        0.0265
     76 H          42.3047    1.2850    0.0000 H       1  UNL1        0.0265
     77 H          11.9938   -0.1649    0.0000 H       1  UNL1        0.0265
     78 H          12.7908   -0.1649    0.0000 H       1  UNL1        0.0265
     79 H          15.3889    1.2850    0.0000 H       1  UNL1        0.0265
     80 H          14.5919    1.2850    0.0000 H       1  UNL1        0.0265
     81 H          39.6376    1.2850    0.0000 H       1  UNL1        0.0265
     82 H          38.8406    1.2850    0.0000 H       1  UNL1        0.0265
     83 H          43.1707   -0.1649    0.0000 H       1  UNL1        0.0265
     84 H          43.9677   -0.1649    0.0000 H       1  UNL1        0.0265
     85 H          11.9248    1.2850    0.0000 H       1  UNL1        0.0265
     86 H          11.1278    1.2850    0.0000 H       1  UNL1        0.0265
     87 H          15.4579   -0.1649    0.0000 H       1  UNL1        0.0265
     88 H          16.2549   -0.1649    0.0000 H       1  UNL1        0.0265
     89 H          37.9745   -0.1649    0.0000 H       1  UNL1        0.0265
     90 H          38.7716   -0.1649    0.0000 H       1  UNL1        0.0265
     91 H          44.8338    1.2850    0.0000 H       1  UNL1        0.0265
     92 H          44.0367    1.2850    0.0000 H       1  UNL1        0.0265
     93 H          10.2617   -0.1649    0.0000 H       1  UNL1        0.0265
     94 H          11.0588   -0.1649    0.0000 H       1  UNL1        0.0265
     95 H          17.1210    1.2850    0.0000 H       1  UNL1        0.0265
     96 H          16.3239    1.2850    0.0000 H       1  UNL1        0.0265
     97 H          37.9056    1.2850    0.0000 H       1  UNL1        0.0265
     98 H          37.1085    1.2850    0.0000 H       1  UNL1        0.0265
     99 H          44.9027   -0.1649    0.0000 H       1  UNL1        0.0265
    100 H          45.6998   -0.1649    0.0000 H       1  UNL1        0.0265
    101 H          10.1928    1.2850    0.0000 H       1  UNL1        0.0265
    102 H           9.3957    1.2850    0.0000 H       1  UNL1        0.0265
    103 H          17.1899   -0.1649    0.0000 H       1  UNL1        0.0265
    104 H          17.9870   -0.1649    0.0000 H       1  UNL1        0.0265
    105 H          36.2425   -0.1649    0.0000 H       1  UNL1        0.0265
    106 H          37.0395   -0.1649    0.0000 H       1  UNL1        0.0265
    107 H          46.5658    1.2850    0.0000 H       1  UNL1        0.0265
    108 H          45.7688    1.2850    0.0000 H       1  UNL1        0.0265
    109 H           8.5297   -0.1649    0.0000 H       1  UNL1        0.0265
    110 H           9.3267   -0.1649    0.0000 H       1  UNL1        0.0265
    111 H          18.8530    1.2850    0.0000 H       1  UNL1        0.0265
    112 H          18.0560    1.2850    0.0000 H       1  UNL1        0.0265
    113 H          36.1735    1.2850    0.0000 H       1  UNL1        0.0265
    114 H          35.3765    1.2850    0.0000 H       1  UNL1        0.0265
    115 H          46.6348   -0.1649    0.0000 H       1  UNL1        0.0265
    116 H          47.4319   -0.1649    0.0000 H       1  UNL1        0.0265
    117 H           8.4607    1.2850    0.0000 H       1  UNL1        0.0265
    118 H           7.6636    1.2850    0.0000 H       1  UNL1        0.0265
    119 H          18.9220   -0.1649    0.0000 H       1  UNL1        0.0265
    120 H          19.7190   -0.1649    0.0000 H       1  UNL1        0.0265
    121 H          48.2979    1.2850    0.0000 H       1  UNL1        0.0265
    122 H          47.5008    1.2850    0.0000 H       1  UNL1        0.0265
    123 H           6.7976   -0.1649    0.0000 H       1  UNL1        0.0265
    124 H           7.5947   -0.1649    0.0000 H       1  UNL1        0.0265
    125 H          34.5104   -0.1649    0.0000 H       1  UNL1        0.0265
    126 H          35.3075   -0.1649    0.0000 H       1  UNL1        0.0265
    127 H          20.5851    1.2850    0.0000 H       1  UNL1        0.0265
    128 H          19.7880    1.2850    0.0000 H       1  UNL1        0.0265
    129 H          48.3668   -0.1649    0.0000 H       1  UNL1        0.0265
    130 H          49.1639   -0.1649    0.0000 H       1  UNL1        0.0265
    131 H           6.7287    1.2850    0.0000 H       1  UNL1        0.0265
    132 H           5.9316    1.2850    0.0000 H       1  UNL1        0.0265
    133 H          34.4415    1.2850    0.0000 H       1  UNL1        0.0265
    134 H          33.6444    1.2850    0.0000 H       1  UNL1        0.0265
    135 H          20.6540   -0.1649    0.0000 H       1  UNL1        0.0265
    136 H          21.4511   -0.1649    0.0000 H       1  UNL1        0.0265
    137 H          50.0299    1.2850    0.0000 H       1  UNL1        0.0265
    138 H          49.2329    1.2850    0.0000 H       1  UNL1        0.0265
    139 H           5.0656   -0.1649    0.0000 H       1  UNL1        0.0265
    140 H           5.8626   -0.1649    0.0000 H       1  UNL1        0.0265
    141 H          32.7784   -0.1649    0.0000 H       1  UNL1        0.0265
    142 H          33.5754   -0.1649    0.0000 H       1  UNL1        0.0265
    143 H          22.3171    1.2850    0.0000 H       1  UNL1        0.0265
    144 H          21.5201    1.2850    0.0000 H       1  UNL1        0.0265
    145 H          50.0989   -0.1649    0.0000 H       1  UNL1        0.0265
    146 H          50.8960   -0.1649    0.0000 H       1  UNL1        0.0265
    147 H           4.9966    1.2850    0.0000 H       1  UNL1        0.0265
    148 H           4.1996    1.2850    0.0000 H       1  UNL1        0.0265
    149 H          32.7094    1.2850    0.0000 H       1  UNL1        0.0265
    150 H          31.9124    1.2850    0.0000 H       1  UNL1        0.0265
    151 H          22.3861   -0.1649    0.0000 H       1  UNL1        0.0265
    152 H          23.1831   -0.1649    0.0000 H       1  UNL1        0.0265
    153 H          51.7620    1.2850    0.0000 H       1  UNL1        0.0265
    154 H          50.9649    1.2850    0.0000 H       1  UNL1        0.0265
    155 H           3.3335   -0.1649    0.0000 H       1  UNL1        0.0265
    156 H           4.1306   -0.1649    0.0000 H       1  UNL1        0.0265
    157 H          31.0463   -0.1649    0.0000 H       1  UNL1        0.0270
    158 H          31.8434   -0.1649    0.0000 H       1  UNL1        0.0270
    159 H          24.0492    1.2850    0.0000 H       1  UNL1        0.0270
    160 H          23.2521    1.2850    0.0000 H       1  UNL1        0.0270
    161 H          51.8309   -0.1649    0.0000 H       1  UNL1        0.0263
    162 H          52.6280   -0.1649    0.0000 H       1  UNL1        0.0263
    163 H           3.2646    1.2850    0.0000 H       1  UNL1        0.0263
    164 H           2.4675    1.2850    0.0000 H       1  UNL1        0.0263
    165 H          30.9774    1.2850    0.0000 H       1  UNL1        0.0377
    166 H          30.1803    1.2850    0.0000 H       1  UNL1        0.0377
    167 H          24.1181   -0.1649    0.0000 H       1  UNL1        0.0377
    168 H          24.9152   -0.1649    0.0000 H       1  UNL1        0.0377
    169 H          53.4055    0.2731    0.0000 H       1  UNL1        0.0230
    170 H          53.6324    1.1200    0.0000 H       1  UNL1        0.0230
    171 H          52.7855    1.3469    0.0000 H       1  UNL1        0.0230
    172 H           1.6900    0.8469    0.0000 H       1  UNL1        0.0230
    173 H           1.4631    0.0000    0.0000 H       1  UNL1        0.0230
    174 H           2.3100   -0.2269    0.0000 H       1  UNL1        0.0230
    175 H          27.9808    0.9300    0.0000 H       1  UNL1        0.0792
    176 H          27.5133    1.2850    0.0000 H       1  UNL1        0.0736
    177 H          26.7162    1.2850    0.0000 H       1  UNL1        0.0736
    178 H          28.1928   -1.2726    0.0000 H       1  UNL1        0.0595
    179 H          28.5913   -0.5823    0.0000 H       1  UNL1        0.0595
    180 H          27.1147   -1.8100    0.0000 H       1  UNL1        0.2096
@<TRIPOS>BOND
     1     1    60    1
     2     1    62    1
     3     2    61    1
     4     2    63    1
     5     3    60    2
     6     4    61    2
     7     5    64    1
     8     5   180    1
     9     6     7    1
    10     6    10    1
    11     6    65    1
    12     6    66    1
    13     7    11    1
    14     7    67    1
    15     7    68    1
    16     8     9    1
    17     8    12    1
    18     8    69    1
    19     8    70    1
    20     9    13    1
    21     9    71    1
    22     9    72    1
    23    10    14    1
    24    10    73    1
    25    10    74    1
    26    11    15    1
    27    11    75    1
    28    11    76    1
    29    12    16    1
    30    12    77    1
    31    12    78    1
    32    13    17    1
    33    13    79    1
    34    13    80    1
    35    14    18    1
    36    14    81    1
    37    14    82    1
    38    15    19    1
    39    15    83    1
    40    15    84    1
    41    16    20    1
    42    16    85    1
    43    16    86    1
    44    17    21    1
    45    17    87    1
    46    17    88    1
    47    18    22    1
    48    18    89    1
    49    18    90    1
    50    19    23    1
    51    19    91    1
    52    19    92    1
    53    20    24    1
    54    20    93    1
    55    20    94    1
    56    21    25    1
    57    21    95    1
    58    21    96    1
    59    22    26    1
    60    22    97    1
    61    22    98    1
    62    23    27    1
    63    23    99    1
    64    23   100    1
    65    24    28    1
    66    24   101    1
    67    24   102    1
    68    25    29    1
    69    25   103    1
    70    25   104    1
    71    26    30    1
    72    26   105    1
    73    26   106    1
    74    27    31    1
    75    27   107    1
    76    27   108    1
    77    28    32    1
    78    28   109    1
    79    28   110    1
    80    29    33    1
    81    29   111    1
    82    29   112    1
    83    30    36    1
    84    30   113    1
    85    30   114    1
    86    31    34    1
    87    31   115    1
    88    31   116    1
    89    32    35    1
    90    32   117    1
    91    32   118    1
    92    33    37    1
    93    33   119    1
    94    33   120    1
    95    34    38    1
    96    34   121    1
    97    34   122    1
    98    35    39    1
    99    35   123    1
   100    35   124    1
   101    36    40    1
   102    36   125    1
   103    36   126    1
   104    37    41    1
   105    37   127    1
   106    37   128    1
   107    38    42    1
   108    38   129    1
   109    38   130    1
   110    39    43    1
   111    39   131    1
   112    39   132    1
   113    40    44    1
   114    40   133    1
   115    40   134    1
   116    41    45    1
   117    41   135    1
   118    41   136    1
   119    42    46    1
   120    42   137    1
   121    42   138    1
   122    43    47    1
   123    43   139    1
   124    43   140    1
   125    44    48    1
   126    44   141    1
   127    44   142    1
   128    45    49    1
   129    45   143    1
   130    45   144    1
   131    46    50    1
   132    46   145    1
   133    46   146    1
   134    47    51    1
   135    47   147    1
   136    47   148    1
   137    48    52    1
   138    48   149    1
   139    48   150    1
   140    49    53    1
   141    49   151    1
   142    49   152    1
   143    50    54    1
   144    50   153    1
   145    50   154    1
   146    51    55    1
   147    51   155    1
   148    51   156    1
   149    52    56    1
   150    52   157    1
   151    52   158    1
   152    53    57    1
   153    53   159    1
   154    53   160    1
   155    54    58    1
   156    54   161    1
   157    54   162    1
   158    55    59    1
   159    55   163    1
   160    55   164    1
   161    56    60    1
   162    56   165    1
   163    56   166    1
   164    57    61    1
   165    57   167    1
   166    57   168    1
   167    58   169    1
   168    58   170    1
   169    58   171    1
   170    59   172    1
   171    59   173    1
   172    59   174    1
   173    62    63    1
   174    62    64    1
   175    62   175    1
   176    63   176    1
   177    63   177    1
   178    64   178    1
   179    64   179    1
