@<TRIPOS>MOLECULE
IMPHY008303
 22 21 0 0 0
SMALL
GASTEIGER

@<TRIPOS>ATOM
      1 O           2.5369    1.0000    0.0000 O.3     1  UNL1       -0.3878
      2 C           5.1350    0.5000    0.0000 C.3     1  UNL1       -0.0507
      3 C           4.2690    1.0000    0.0000 C.3     1  UNL1       -0.0233
      4 C           6.0010    1.0000    0.0000 C.3     1  UNL1       -0.0558
      5 C           3.4030    0.5000    0.0000 C.3     1  UNL1        0.0731
      6 C           6.8671    0.5000    0.0000 C.3     1  UNL1       -0.0653
      7 C           3.4030   -0.5000    0.0000 C.2     1  UNL1       -0.0630
      8 C           2.5369   -1.0000    0.0000 C.2     1  UNL1       -0.1002
      9 H           4.7365    0.0251    0.0000 H       1  UNL1        0.0266
     10 H           5.5335    0.0251    0.0000 H       1  UNL1        0.0266
     11 H           4.6675    1.4750    0.0000 H       1  UNL1        0.0293
     12 H           3.8705    1.4750    0.0000 H       1  UNL1        0.0293
     13 H           6.3996    1.4750    0.0000 H       1  UNL1        0.0263
     14 H           5.6025    1.4750    0.0000 H       1  UNL1        0.0263
     15 H           3.4030    1.1200    0.0000 H       1  UNL1        0.0637
     16 H           6.5571   -0.0369    0.0000 H       1  UNL1        0.0230
     17 H           7.4040    0.1900    0.0000 H       1  UNL1        0.0230
     18 H           7.1771    1.0369    0.0000 H       1  UNL1        0.0230
     19 H           3.9399   -0.8100    0.0000 H       1  UNL1        0.0592
     20 H           2.0000    0.6900    0.0000 H       1  UNL1        0.2102
     21 H           2.0000   -0.6900    0.0000 H       1  UNL1        0.0533
     22 H           2.5369   -1.6200    0.0000 H       1  UNL1        0.0533
@<TRIPOS>BOND
     1     1     5    1
     2     1    20    1
     3     2     3    1
     4     2     4    1
     5     2     9    1
     6     2    10    1
     7     3     5    1
     8     3    11    1
     9     3    12    1
    10     4     6    1
    11     4    13    1
    12     4    14    1
    13     5     7    1
    14     5    15    1
    15     6    16    1
    16     6    17    1
    17     6    18    1
    18     7     8    2
    19     7    19    1
    20     8    21    1
    21     8    22    1
