@<TRIPOS>MOLECULE
IMPHY015444
 40 41 0 0 0
SMALL
GASTEIGER

@<TRIPOS>ATOM
      1 O           7.7834   -0.0805    0.0000 O.3     1  UNL1       -0.3912
      2 C           6.0514   -0.0805    0.0000 C.3     1  UNL1       -0.0021
      3 C           6.9174    0.4195    0.0000 C.3     1  UNL1        0.0612
      4 C           5.1854    0.4195    0.0000 C.3     1  UNL1       -0.0240
      5 C           5.4756   -0.8690    0.0000 C.3     1  UNL1       -0.0413
      6 C           6.9174    1.4195    0.0000 C.3     1  UNL1       -0.0226
      7 C           5.1854    1.4195    0.0000 C.2     1  UNL1       -0.0725
      8 C           6.0514    1.9195    0.0000 C.3     1  UNL1       -0.0294
      9 C           6.9174   -0.5805    0.0000 C.3     1  UNL1       -0.0569
     10 C           4.5095   -1.0102    0.0000 C.3     1  UNL1       -0.0306
     11 C           3.7320   -0.4195    0.0000 C.2     1  UNL1       -0.0671
     12 C           4.2146    1.3151    0.0000 C.2     1  UNL1       -0.0807
     13 C           3.6092    0.5491    0.0000 C.3     1  UNL1       -0.0130
     14 C           2.8660   -0.9195    0.0000 C.2     1  UNL1       -0.0762
     15 C           2.8660   -1.9195    0.0000 C.3     1  UNL1       -0.0438
     16 C           2.0000   -0.4195    0.0000 C.3     1  UNL1       -0.0438
     17 H           7.4543    0.7295    0.0000 H       1  UNL1        0.0599
     18 H           4.5748    0.5272    0.0000 H       1  UNL1        0.0316
     19 H           4.9733   -0.1631    0.0000 H       1  UNL1        0.0316
     20 H           5.4054   -1.4850    0.0000 H       1  UNL1        0.0274
     21 H           6.0531   -1.0944    0.0000 H       1  UNL1        0.0274
     22 H           7.5280    1.3119    0.0000 H       1  UNL1        0.0293
     23 H           7.1295    2.0021    0.0000 H       1  UNL1        0.0293
     24 H           6.4499    2.3945    0.0000 H       1  UNL1        0.0311
     25 H           5.6528    2.3945    0.0000 H       1  UNL1        0.0311
     26 H           6.6074   -1.1174    0.0000 H       1  UNL1        0.0236
     27 H           7.4543   -0.8905    0.0000 H       1  UNL1        0.0236
     28 H           7.2274   -0.0435    0.0000 H       1  UNL1        0.0236
     29 H           4.0206   -1.3915    0.0000 H       1  UNL1        0.0310
     30 H           4.7531   -1.5804    0.0000 H       1  UNL1        0.0310
     31 H           3.9148    1.8579    0.0000 H       1  UNL1        0.0575
     32 H           3.2373    1.0451    0.0000 H       1  UNL1        0.0352
     33 H           3.0345    0.3164    0.0000 H       1  UNL1        0.0352
     34 H           8.3204    0.2295    0.0000 H       1  UNL1        0.2098
     35 H           2.2460   -1.9195    0.0000 H       1  UNL1        0.0274
     36 H           2.8660   -2.5395    0.0000 H       1  UNL1        0.0274
     37 H           3.4860   -1.9195    0.0000 H       1  UNL1        0.0274
     38 H           2.3100    0.1174    0.0000 H       1  UNL1        0.0274
     39 H           1.4631   -0.1095    0.0000 H       1  UNL1        0.0274
     40 H           1.6900   -0.9565    0.0000 H       1  UNL1        0.0274
@<TRIPOS>BOND
     1     3     1    1
     2     1    34    1
     3     2     3    1
     4     2     4    1
     5     2     5    1
     6     2     9    1
     7     3     6    1
     8     3    17    1
     9     4     7    1
    10     4    18    1
    11     4    19    1
    12     5    10    1
    13     5    20    1
    14     5    21    1
    15     6     8    1
    16     6    22    1
    17     6    23    1
    18     7     8    1
    19     7    12    2
    20     8    24    1
    21     8    25    1
    22     9    26    1
    23     9    27    1
    24     9    28    1
    25    10    11    1
    26    10    29    1
    27    10    30    1
    28    11    13    1
    29    11    14    2
    30    12    13    1
    31    12    31    1
    32    13    32    1
    33    13    33    1
    34    14    15    1
    35    14    16    1
    36    15    35    1
    37    15    36    1
    38    15    37    1
    39    16    38    1
    40    16    39    1
    41    16    40    1
