@<TRIPOS>MOLECULE
IMPHY012994
 14 14 0 0 0
SMALL
GASTEIGER

@<TRIPOS>ATOM
      1 S           4.5981   -1.0000    0.0000 S.3     1  UNL1       -0.0526
      2 S           5.4641   -0.5000    0.0000 S.3     1  UNL1       -0.0598
      3 C           3.7320   -0.5000    0.0000 C.2     1  UNL1        0.0184
      4 C           3.7320    0.5000    0.0000 C.2     1  UNL1       -0.0470
      5 C           4.5981    1.0000    0.0000 C.2     1  UNL1       -0.0537
      6 C           2.8660   -1.0000    0.0000 C.2     1  UNL1       -0.0546
      7 C           5.4641    0.5000    0.0000 C.2     1  UNL1       -0.0175
      8 C           2.0000   -0.5000    0.0000 C.2     1  UNL1       -0.0976
      9 H           3.1951    0.8100    0.0000 H       1  UNL1        0.0629
     10 H           4.5981    1.6200    0.0000 H       1  UNL1        0.0623
     11 H           2.8660   -1.6200    0.0000 H       1  UNL1        0.0623
     12 H           6.0010    0.8100    0.0000 H       1  UNL1        0.0698
     13 H           2.0000    0.1200    0.0000 H       1  UNL1        0.0535
     14 H           1.4631   -0.8100    0.0000 H       1  UNL1        0.0535
@<TRIPOS>BOND
     1     1     2    1
     2     1     3    1
     3     2     7    1
     4     3     4    2
     5     3     6    1
     6     4     5    1
     7     4     9    1
     8     5     7    2
     9     5    10    1
    10     6     8    2
    11     6    11    1
    12     7    12    1
    13     8    13    1
    14     8    14    1
