@<TRIPOS>MOLECULE
IMPHY007658
 155 164 0 0 0
SMALL
GASTEIGER

@<TRIPOS>ATOM
      1 O          14.3523    4.0403    0.0000 O.3     1  UNL1       -0.3448
      2 O          12.5799    4.9351    0.0000 O.3     1  UNL1       -0.3480
      3 O          12.9292   -4.2038    0.0000 O.3     1  UNL1       -0.3451
      4 O          11.1972   -4.2038    0.0000 O.3     1  UNL1       -0.3405
      5 O          12.9292   -6.2038    0.0000 O.3     1  UNL1       -0.3378
      6 O          11.1972   -7.2038    0.0000 O.3     1  UNL1       -0.3864
      7 O           9.4651   -6.2038    0.0000 O.3     1  UNL1       -0.3401
      8 O          13.7953   -4.7038    0.0000 O.3     1  UNL1       -0.3431
      9 O           9.4651   -3.2038    0.0000 O.3     1  UNL1       -0.3924
     10 O           8.5991   -4.7038    0.0000 O.3     1  UNL1       -0.3405
     11 O          14.6613   -7.2038    0.0000 O.3     1  UNL1       -0.3841
     12 O          16.3933   -6.2038    0.0000 O.3     1  UNL1       -0.3864
     13 O           7.7331   -7.2038    0.0000 O.3     1  UNL1       -0.3841
     14 O          16.3933   -4.2038    0.0000 O.3     1  UNL1       -0.3866
     15 O           6.0010   -6.2038    0.0000 O.3     1  UNL1       -0.3401
     16 O           6.0010   -4.2038    0.0000 O.3     1  UNL1       -0.3865
     17 O           6.8671   -2.7038    0.0000 O.3     1  UNL1       -0.3924
     18 O           5.1350   -4.7038    0.0000 O.3     1  UNL1       -0.3405
     19 O           4.2690   -7.2038    0.0000 O.3     1  UNL1       -0.3841
     20 O           2.5369   -6.2038    0.0000 O.3     1  UNL1       -0.3864
     21 O           2.5369   -4.2038    0.0000 O.3     1  UNL1       -0.3865
     22 O           5.1350   -2.7038    0.0000 O.3     1  UNL1       -0.3924
     23 C          12.9585    1.9931    0.0000 C.3     1  UNL1       -0.0233
     24 C          13.8264    1.4965    0.0000 C.3     1  UNL1       -0.0295
     25 C          13.1640    2.9657    0.0000 C.3     1  UNL1       -0.0015
     26 C          13.8303    0.4965    0.0000 C.3     1  UNL1       -0.0306
     27 C          14.1523    3.0726    0.0000 C.3     1  UNL1        0.0660
     28 C          12.9662   -0.0069    0.0000 C.3     1  UNL1       -0.0285
     29 C          14.5609    2.1664    0.0000 C.3     1  UNL1       -0.0226
     30 C          12.0944    1.4898    0.0000 C.3     1  UNL1       -0.0467
     31 C          12.7617    3.8683    0.0000 C.3     1  UNL1        0.0160
     32 C          12.0983    0.4898    0.0000 C.3     1  UNL1       -0.0486
     33 C          12.9542   -1.0484    0.0000 C.3     1  UNL1       -0.0078
     34 C          13.4946    4.5311    0.0000 C.3     1  UNL1        0.1732
     35 C          12.0906    2.4898    0.0000 C.3     1  UNL1       -0.0590
     36 C          14.7422   -0.0069    0.0000 C.3     1  UNL1       -0.0311
     37 C          13.8542   -1.5727    0.0000 C.2     1  UNL1       -0.0648
     38 C          12.0043   -1.5727    0.0000 C.3     1  UNL1       -0.0413
     39 C          11.7833    4.0750    0.0000 C.3     1  UNL1       -0.0572
     40 C          14.3019    5.1213    0.0000 C.3     1  UNL1        0.0020
     41 C          14.7543   -1.0484    0.0000 C.2     1  UNL1       -0.0839
     42 C          12.0901   -0.5451    0.0000 C.3     1  UNL1       -0.0556
     43 C          13.8668   -2.6576    0.0000 C.3     1  UNL1       -0.0047
     44 C          11.9917   -2.6576    0.0000 C.3     1  UNL1       -0.0254
     45 C          12.9292   -3.2038    0.0000 C.3     1  UNL1        0.0655
     46 C          14.1944    6.1155    0.0000 C.3     1  UNL1       -0.0435
     47 C          13.2796    6.5195    0.0000 C.3     1  UNL1       -0.0201
     48 C          12.4724    5.9293    0.0000 C.3     1  UNL1        0.0535
     49 C          13.1721    7.5138    0.0000 C.3     1  UNL1       -0.0603
     50 C          12.0632   -4.7038    0.0000 C.3     1  UNL1        0.1886
     51 C          12.0632   -5.7038    0.0000 C.3     1  UNL1        0.1406
     52 C          11.1972   -6.2038    0.0000 C.3     1  UNL1        0.1148
     53 C          10.3312   -4.7038    0.0000 C.3     1  UNL1        0.1134
     54 C          10.3312   -5.7038    0.0000 C.3     1  UNL1        0.1184
     55 C           9.4651   -4.2038    0.0000 C.3     1  UNL1        0.0730
     56 C          13.7953   -5.7038    0.0000 C.3     1  UNL1        0.1884
     57 C          14.6613   -6.2038    0.0000 C.3     1  UNL1        0.1341
     58 C           8.5991   -5.7038    0.0000 C.3     1  UNL1        0.1884
     59 C          15.5273   -5.7038    0.0000 C.3     1  UNL1        0.1140
     60 C          14.6613   -4.2038    0.0000 C.3     1  UNL1        0.0873
     61 C           7.7331   -6.2038    0.0000 C.3     1  UNL1        0.1345
     62 C          15.5273   -4.7038    0.0000 C.3     1  UNL1        0.1095
     63 C           6.8671   -5.7038    0.0000 C.3     1  UNL1        0.1206
     64 C           7.7331   -4.2038    0.0000 C.3     1  UNL1        0.1130
     65 C           6.8671   -4.7038    0.0000 C.3     1  UNL1        0.1123
     66 C          14.6613   -3.2038    0.0000 C.3     1  UNL1       -0.0361
     67 C           7.7331   -3.2038    0.0000 C.3     1  UNL1        0.0730
     68 C           5.1350   -5.7038    0.0000 C.3     1  UNL1        0.1884
     69 C           4.2690   -6.2038    0.0000 C.3     1  UNL1        0.1341
     70 C           3.4030   -5.7038    0.0000 C.3     1  UNL1        0.1141
     71 C           4.2690   -4.2038    0.0000 C.3     1  UNL1        0.1130
     72 C           3.4030   -4.7038    0.0000 C.3     1  UNL1        0.1119
     73 C           4.2690   -3.2038    0.0000 C.3     1  UNL1        0.0730
     74 H          14.6047    1.1548    0.0000 H       1  UNL1        0.0310
     75 H          12.3187    2.8762    0.0000 H       1  UNL1        0.0335
     76 H          14.5615    0.9300    0.0000 H       1  UNL1        0.0310
     77 H          14.9972    3.1658    0.0000 H       1  UNL1        0.0600
     78 H          13.7007   -0.4347    0.0000 H       1  UNL1        0.0312
     79 H          14.9283    1.6670    0.0000 H       1  UNL1        0.0293
     80 H          15.0962    2.4792    0.0000 H       1  UNL1        0.0293
     81 H          11.8801    2.0716    0.0000 H       1  UNL1        0.0271
     82 H          11.4842    1.3798    0.0000 H       1  UNL1        0.0271
     83 H          12.3719    3.3862    0.0000 H       1  UNL1        0.0354
     84 H          11.4873    0.5951    0.0000 H       1  UNL1        0.0268
     85 H          11.8885   -0.0936    0.0000 H       1  UNL1        0.0268
     86 H          12.3985    3.0279    0.0000 H       1  UNL1        0.0235
     87 H          11.5524    2.7977    0.0000 H       1  UNL1        0.0235
     88 H          11.7826    1.9517    0.0000 H       1  UNL1        0.0235
     89 H          15.3543   -0.1059    0.0000 H       1  UNL1        0.0310
     90 H          14.9445    0.5792    0.0000 H       1  UNL1        0.0310
     91 H          11.8020   -0.9866    0.0000 H       1  UNL1        0.0274
     92 H          11.3922   -1.6717    0.0000 H       1  UNL1        0.0274
     93 H          11.9114    4.6816    0.0000 H       1  UNL1        0.0234
     94 H          11.1766    4.2032    0.0000 H       1  UNL1        0.0234
     95 H          11.6551    3.4684    0.0000 H       1  UNL1        0.0234
     96 H          14.5753    4.5649    0.0000 H       1  UNL1        0.0317
     97 H          14.8974    5.2940    0.0000 H       1  UNL1        0.0317
     98 H          15.2936   -1.3543    0.0000 H       1  UNL1        0.0572
     99 H          12.4021   -0.0093    0.0000 H       1  UNL1        0.0238
    100 H          11.5543   -0.2330    0.0000 H       1  UNL1        0.0238
    101 H          11.7780   -1.0808    0.0000 H       1  UNL1        0.0238
    102 H          14.0826   -3.2389    0.0000 H       1  UNL1        0.0335
    103 H          14.4764   -2.5445    0.0000 H       1  UNL1        0.0335
    104 H          11.3821   -2.5445    0.0000 H       1  UNL1        0.0290
    105 H          11.7759   -3.2389    0.0000 H       1  UNL1        0.0290
    106 H          12.3917   -3.5127    0.0000 H       1  UNL1        0.0600
    107 H          14.8130    6.0741    0.0000 H       1  UNL1        0.0270
    108 H          14.3426    6.7176    0.0000 H       1  UNL1        0.0270
    109 H          13.7801    6.8855    0.0000 H       1  UNL1        0.0320
    110 H          12.1989    6.4858    0.0000 H       1  UNL1        0.0563
    111 H          11.8769    5.7567    0.0000 H       1  UNL1        0.0563
    112 H          13.7885    7.5804    0.0000 H       1  UNL1        0.0233
    113 H          13.1055    8.1302    0.0000 H       1  UNL1        0.0233
    114 H          12.5557    7.4471    0.0000 H       1  UNL1        0.0233
    115 H          12.6002   -5.0138    0.0000 H       1  UNL1        0.0938
    116 H          12.0632   -6.3238    0.0000 H       1  UNL1        0.0675
    117 H          10.6603   -6.5138    0.0000 H       1  UNL1        0.0648
    118 H          10.3312   -4.0838    0.0000 H       1  UNL1        0.0647
    119 H           9.7942   -5.3938    0.0000 H       1  UNL1        0.0651
    120 H           8.8546   -4.0961    0.0000 H       1  UNL1        0.0584
    121 H           9.2531   -4.7864    0.0000 H       1  UNL1        0.0584
    122 H          13.7953   -6.3238    0.0000 H       1  UNL1        0.0938
    123 H          10.6603   -7.5138    0.0000 H       1  UNL1        0.2100
    124 H          15.1982   -6.5138    0.0000 H       1  UNL1        0.0671
    125 H           8.5991   -6.3238    0.0000 H       1  UNL1        0.0938
    126 H           8.9282   -2.8938    0.0000 H       1  UNL1        0.2095
    127 H          16.0643   -5.3938    0.0000 H       1  UNL1        0.0648
    128 H          14.1244   -3.8938    0.0000 H       1  UNL1        0.0621
    129 H           7.1962   -6.5138    0.0000 H       1  UNL1        0.0671
    130 H          15.5273   -4.0838    0.0000 H       1  UNL1        0.0646
    131 H           6.3301   -5.3938    0.0000 H       1  UNL1        0.0651
    132 H          15.1982   -7.5138    0.0000 H       1  UNL1        0.2101
    133 H           8.2700   -3.8938    0.0000 H       1  UNL1        0.0647
    134 H           6.8671   -4.0838    0.0000 H       1  UNL1        0.0647
    135 H          15.2813   -3.2038    0.0000 H       1  UNL1        0.0255
    136 H          14.6613   -2.5838    0.0000 H       1  UNL1        0.0255
    137 H          14.0413   -3.2038    0.0000 H       1  UNL1        0.0255
    138 H          16.9303   -5.8938    0.0000 H       1  UNL1        0.2100
    139 H           7.1962   -7.5138    0.0000 H       1  UNL1        0.2101
    140 H          16.9303   -4.5138    0.0000 H       1  UNL1        0.2100
    141 H           8.3437   -3.3114    0.0000 H       1  UNL1        0.0584
    142 H           7.9451   -2.6211    0.0000 H       1  UNL1        0.0584
    143 H           6.0010   -3.5838    0.0000 H       1  UNL1        0.2100
    144 H           5.1350   -6.3238    0.0000 H       1  UNL1        0.0938
    145 H           3.7320   -6.5138    0.0000 H       1  UNL1        0.0671
    146 H           6.8671   -2.0838    0.0000 H       1  UNL1        0.2095
    147 H           2.8660   -5.3938    0.0000 H       1  UNL1        0.0648
    148 H           4.8059   -3.8938    0.0000 H       1  UNL1        0.0647
    149 H           3.4030   -4.0838    0.0000 H       1  UNL1        0.0647
    150 H           3.7320   -7.5138    0.0000 H       1  UNL1        0.2101
    151 H           4.0569   -2.6211    0.0000 H       1  UNL1        0.0584
    152 H           3.6584   -3.3114    0.0000 H       1  UNL1        0.0584
    153 H           2.0000   -5.8938    0.0000 H       1  UNL1        0.2100
    154 H           2.5369   -3.5838    0.0000 H       1  UNL1        0.2100
    155 H           5.1350   -2.0838    0.0000 H       1  UNL1        0.2095
@<TRIPOS>BOND
     1     1    27    1
     2    34     1    1
     3     2    34    1
     4     2    48    1
     5    45     3    1
     6    50     3    1
     7     4    50    1
     8     4    53    1
     9    51     5    1
    10    56     5    1
    11    52     6    1
    12     6   123    1
    13    54     7    1
    14    58     7    1
    15     8    56    1
    16     8    60    1
    17     9    55    1
    18     9   126    1
    19    10    58    1
    20    10    64    1
    21    57    11    1
    22    11   132    1
    23    59    12    1
    24    12   138    1
    25    61    13    1
    26    13   139    1
    27    62    14    1
    28    14   140    1
    29    63    15    1
    30    68    15    1
    31    65    16    1
    32    16   143    1
    33    17    67    1
    34    17   146    1
    35    18    68    1
    36    18    71    1
    37    69    19    1
    38    19   150    1
    39    70    20    1
    40    20   153    1
    41    72    21    1
    42    21   154    1
    43    22    73    1
    44    22   155    1
    45    23    24    1
    46    23    25    1
    47    23    30    1
    48    23    35    1
    49    24    26    1
    50    24    29    1
    51    24    74    1
    52    25    27    1
    53    25    31    1
    54    25    75    1
    55    26    28    1
    56    26    36    1
    57    26    76    1
    58    27    29    1
    59    27    77    1
    60    28    32    1
    61    28    33    1
    62    28    78    1
    63    29    79    1
    64    29    80    1
    65    30    32    1
    66    30    81    1
    67    30    82    1
    68    31    34    1
    69    31    39    1
    70    31    83    1
    71    32    84    1
    72    32    85    1
    73    33    37    1
    74    33    38    1
    75    33    42    1
    76    34    40    1
    77    35    86    1
    78    35    87    1
    79    35    88    1
    80    36    41    1
    81    36    89    1
    82    36    90    1
    83    37    41    2
    84    37    43    1
    85    38    44    1
    86    38    91    1
    87    38    92    1
    88    39    93    1
    89    39    94    1
    90    39    95    1
    91    40    46    1
    92    40    96    1
    93    40    97    1
    94    41    98    1
    95    42    99    1
    96    42   100    1
    97    42   101    1
    98    43    45    1
    99    43   102    1
   100    43   103    1
   101    44    45    1
   102    44   104    1
   103    44   105    1
   104    45   106    1
   105    46    47    1
   106    46   107    1
   107    46   108    1
   108    47    48    1
   109    47    49    1
   110    47   109    1
   111    48   110    1
   112    48   111    1
   113    49   112    1
   114    49   113    1
   115    49   114    1
   116    50    51    1
   117    50   115    1
   118    51    52    1
   119    51   116    1
   120    52    54    1
   121    52   117    1
   122    53    54    1
   123    53    55    1
   124    53   118    1
   125    54   119    1
   126    55   120    1
   127    55   121    1
   128    56    57    1
   129    56   122    1
   130    57    59    1
   131    57   124    1
   132    58    61    1
   133    58   125    1
   134    59    62    1
   135    59   127    1
   136    60    62    1
   137    60    66    1
   138    60   128    1
   139    61    63    1
   140    61   129    1
   141    62   130    1
   142    63    65    1
   143    63   131    1
   144    64    65    1
   145    64    67    1
   146    64   133    1
   147    65   134    1
   148    66   135    1
   149    66   136    1
   150    66   137    1
   151    67   141    1
   152    67   142    1
   153    68    69    1
   154    68   144    1
   155    69    70    1
   156    69   145    1
   157    70    72    1
   158    70   147    1
   159    71    72    1
   160    71    73    1
   161    71   148    1
   162    72   149    1
   163    73   151    1
   164    73   152    1
