@<TRIPOS>MOLECULE
IMPHY000344
 60 63 0 0 0
SMALL
GASTEIGER

@<TRIPOS>ATOM
      1 O           8.6179    0.6646    0.0000 O.3     1  UNL1       -0.3849
      2 O           3.3052   -2.6883    0.0000 O.3     1  UNL1       -0.2308
      3 O           9.4022    1.5649    0.0000 O.3     1  UNL1       -0.4619
      4 O           2.3052   -2.6972    0.0000 O.3     1  UNL1       -0.2496
      5 O           9.8546    3.2368    0.0000 O.2     1  UNL1       -0.2512
      6 C           6.5090   -0.2062    0.0000 C.3     1  UNL1       -0.0228
      7 C           5.6405    0.2895    0.0000 C.3     1  UNL1       -0.0295
      8 C           4.7330   -0.2219    0.0000 C.3     1  UNL1       -0.0232
      9 C           7.1606    1.9442    0.0000 C.3     1  UNL1       -0.0084
     10 C           6.4845    0.9752    0.0000 C.3     1  UNL1       -0.0414
     11 C           4.7302   -1.2635    0.0000 C.3     1  UNL1       -0.0035
     12 C           7.4380    0.1638    0.0000 C.3     1  UNL1       -0.0146
     13 C           6.5302   -1.2476    0.0000 C.3     1  UNL1       -0.0466
     14 C           7.7280    1.1208    0.0000 C.3     1  UNL1        0.1033
     15 C           5.4865    1.2775    0.0000 C.3     1  UNL1       -0.0489
     16 C           5.6349   -1.7798    0.0000 C.3     1  UNL1       -0.0465
     17 C           6.1630    2.0140    0.0000 C.3     1  UNL1       -0.0472
     18 C           3.8034    0.3375    0.0000 C.3     1  UNL1       -0.0469
     19 C           3.7975   -1.8179    0.0000 C.3     1  UNL1        0.1047
     20 C           4.3936    0.7187    0.0000 C.3     1  UNL1       -0.0589
     21 C           2.8582   -0.1951    0.0000 C.3     1  UNL1       -0.0498
     22 C           2.8552   -1.2801    0.0000 C.3     1  UNL1       -0.0207
     23 C           8.4369    1.8261    0.0000 C.3     1  UNL1        0.1213
     24 C           4.3052   -2.6795    0.0000 C.3     1  UNL1       -0.0325
     25 C          10.1110    2.2703    0.0000 C.2     1  UNL1        0.3040
     26 C          11.0763    2.0090    0.0000 C.3     1  UNL1        0.0332
     27 H           4.9023    0.7108    0.0000 H       1  UNL1        0.0311
     28 H           7.4071    2.7577    0.0000 H       1  UNL1        0.0330
     29 H           6.1103    1.4695    0.0000 H       1  UNL1        0.0274
     30 H           5.8988    0.7717    0.0000 H       1  UNL1        0.0274
     31 H           4.7377   -2.1135    0.0000 H       1  UNL1        0.0335
     32 H           7.5335   -0.4488    0.0000 H       1  UNL1        0.0299
     33 H           8.0565    0.1205    0.0000 H       1  UNL1        0.0299
     34 H           6.7512   -1.8269    0.0000 H       1  UNL1        0.0271
     35 H           7.1388   -1.1291    0.0000 H       1  UNL1        0.0271
     36 H           5.1347    1.7881    0.0000 H       1  UNL1        0.0268
     37 H           4.9105    1.0482    0.0000 H       1  UNL1        0.0268
     38 H           5.2399   -2.2578    0.0000 H       1  UNL1        0.0269
     39 H           6.0382   -2.2507    0.0000 H       1  UNL1        0.0269
     40 H           6.3428    2.6073    0.0000 H       1  UNL1        0.0269
     41 H           5.6246    2.3213    0.0000 H       1  UNL1        0.0269
     42 H           4.2093    0.8062    0.0000 H       1  UNL1        0.0271
     43 H           3.4111    0.8176    0.0000 H       1  UNL1        0.0271
     44 H           4.9768    0.9292    0.0000 H       1  UNL1        0.0235
     45 H           4.1831    1.3019    0.0000 H       1  UNL1        0.0235
     46 H           3.8104    0.5082    0.0000 H       1  UNL1        0.0235
     47 H           2.6507    0.3891    0.0000 H       1  UNL1        0.0266
     48 H           2.2470   -0.2996    0.0000 H       1  UNL1        0.0266
     49 H           2.2446   -1.1724    0.0000 H       1  UNL1        0.0294
     50 H           2.6446   -1.8632    0.0000 H       1  UNL1        0.0294
     51 H           8.7003    2.3874    0.0000 H       1  UNL1        0.0727
     52 H           7.9299    2.1830    0.0000 H       1  UNL1        0.0727
     53 H           3.7710   -2.9942    0.0000 H       1  UNL1        0.0258
     54 H           4.6199   -3.2137    0.0000 H       1  UNL1        0.0258
     55 H           4.8393   -2.3648    0.0000 H       1  UNL1        0.0258
     56 H           8.6488    0.0454    0.0000 H       1  UNL1        0.2103
     57 H           2.0000   -3.2368    0.0000 H       1  UNL1        0.2531
     58 H          10.9144    1.4106    0.0000 H       1  UNL1        0.0342
     59 H          11.6748    1.8471    0.0000 H       1  UNL1        0.0342
     60 H          11.2383    2.6075    0.0000 H       1  UNL1        0.0342
@<TRIPOS>BOND
     1    14     1    1
     2     1    56    1
     3     2     4    1
     4    19     2    1
     5     3    23    1
     6     3    25    1
     7     4    57    1
     8     5    25    2
     9     6     7    1
    10     6    10    1
    11     6    12    1
    12     6    13    1
    13     7     8    1
    14     7    15    1
    15     7    27    1
    16     8    11    1
    17     8    18    1
    18     8    20    1
    19     9    10    1
    20     9    14    1
    21     9    17    1
    22     9    28    1
    23    10    29    1
    24    10    30    1
    25    11    16    1
    26    11    19    1
    27    11    31    1
    28    12    14    1
    29    12    32    1
    30    12    33    1
    31    13    16    1
    32    13    34    1
    33    13    35    1
    34    14    23    1
    35    15    17    1
    36    15    36    1
    37    15    37    1
    38    16    38    1
    39    16    39    1
    40    17    40    1
    41    17    41    1
    42    18    21    1
    43    18    42    1
    44    18    43    1
    45    19    22    1
    46    19    24    1
    47    20    44    1
    48    20    45    1
    49    20    46    1
    50    21    22    1
    51    21    47    1
    52    21    48    1
    53    22    49    1
    54    22    50    1
    55    23    51    1
    56    23    52    1
    57    24    53    1
    58    24    54    1
    59    24    55    1
    60    25    26    1
    61    26    58    1
    62    26    59    1
    63    26    60    1
