@<TRIPOS>MOLECULE
IMPHY004986
 67 70 0 0 0
SMALL
GASTEIGER

@<TRIPOS>ATOM
      1 O          11.1972   -0.8623    0.0000 O.3     1  UNL1       -0.3598
      2 O           8.5991   -0.3623    0.0000 O.3     1  UNL1       -0.4526
      3 O           8.5991   -2.3623    0.0000 O.3     1  UNL1       -0.3854
      4 O          10.3312   -3.3623    0.0000 O.3     1  UNL1       -0.3865
      5 O          12.0911    0.6030    0.0000 O.2     1  UNL1       -0.4585
      6 O          12.0632   -3.3623    0.0000 O.3     1  UNL1       -0.3924
      7 O           8.5991    0.6377    0.0000 O.3     1  UNL1       -0.5063
      8 O           7.7331   -1.8623    0.0000 O.2     1  UNL1       -0.2456
      9 O          12.0796    3.6723    0.0000 O.2     1  UNL1       -0.2870
     10 O          14.7331    2.1102    0.0000 O.2     1  UNL1       -0.2972
     11 O           2.5369    1.1377    0.0000 O.3     1  UNL1       -0.5068
     12 C           9.4651   -0.8623    0.0000 C.3     1  UNL1        0.1618
     13 C           9.4651   -1.8623    0.0000 C.3     1  UNL1        0.1231
     14 C          10.3312   -0.3623    0.0000 C.3     1  UNL1        0.1303
     15 C          10.3312   -2.3623    0.0000 C.3     1  UNL1        0.1128
     16 C          11.1972   -1.8623    0.0000 C.3     1  UNL1        0.1109
     17 C          10.3312    0.6377    0.0000 C.ar    1  UNL1        0.0690
     18 C          12.0632   -2.3623    0.0000 C.3     1  UNL1        0.0729
     19 C          11.1972    1.1377    0.0000 C.ar    1  UNL1        0.1483
     20 C           9.4651    1.1377    0.0000 C.ar    1  UNL1        0.1264
     21 C          11.1972    2.1377    0.0000 C.ar    1  UNL1        0.0674
     22 C          10.3312    2.6377    0.0000 C.ar    1  UNL1       -0.0326
     23 C           9.4651    2.1377    0.0000 C.ar    1  UNL1       -0.0160
     24 C           7.7331   -0.8623    0.0000 C.2     1  UNL1        0.3324
     25 C          12.0911    2.6724    0.0000 C.ar    1  UNL1        0.1930
     26 C          12.9972    1.1169    0.0000 C.ar    1  UNL1        0.1164
     27 C          10.3312    3.6377    0.0000 C.3     1  UNL1       -0.0388
     28 C          12.9972    2.1585    0.0000 C.ar    1  UNL1        0.0243
     29 C          13.8613    0.6136    0.0000 C.3     1  UNL1        0.0639
     30 C           6.8671   -0.3623    0.0000 C.2     1  UNL1        0.0231
     31 C          14.7292    1.1102    0.0000 C.2     1  UNL1        0.1376
     32 C           6.0010   -0.8623    0.0000 C.2     1  UNL1       -0.0478
     33 C           5.1350   -0.3623    0.0000 C.ar    1  UNL1       -0.0246
     34 C          15.5933    0.6069    0.0000 C.3     1  UNL1       -0.0056
     35 C           5.1350    0.6377    0.0000 C.ar    1  UNL1       -0.0511
     36 C           4.2690   -0.8623    0.0000 C.ar    1  UNL1       -0.0511
     37 C           4.2690    1.1377    0.0000 C.ar    1  UNL1       -0.0196
     38 C           3.4030   -0.3623    0.0000 C.ar    1  UNL1       -0.0196
     39 C           3.4030    0.6377    0.0000 C.ar    1  UNL1        0.1169
     40 H           9.4651   -0.2423    0.0000 H       1  UNL1        0.0791
     41 H           8.9282   -1.5523    0.0000 H       1  UNL1        0.0658
     42 H          11.0673    0.0627    0.0000 H       1  UNL1        0.0687
     43 H          10.8681   -2.6723    0.0000 H       1  UNL1        0.0647
     44 H          11.7341   -1.5523    0.0000 H       1  UNL1        0.0646
     45 H          12.6738   -2.4700    0.0000 H       1  UNL1        0.0584
     46 H          12.2753   -1.7797    0.0000 H       1  UNL1        0.0584
     47 H           8.5991   -2.9823    0.0000 H       1  UNL1        0.2101
     48 H           9.7942   -3.6723    0.0000 H       1  UNL1        0.2100
     49 H           8.9282    2.4477    0.0000 H       1  UNL1        0.0657
     50 H          12.6002   -3.6723    0.0000 H       1  UNL1        0.2095
     51 H          10.9512    3.6377    0.0000 H       1  UNL1        0.0278
     52 H          10.3312    4.2577    0.0000 H       1  UNL1        0.0278
     53 H           9.7112    3.6377    0.0000 H       1  UNL1        0.0278
     54 H          13.5329    2.4706    0.0000 H       1  UNL1        0.0690
     55 H           8.0622    0.9477    0.0000 H       1  UNL1        0.2921
     56 H          13.4609    0.1401    0.0000 H       1  UNL1        0.0421
     57 H          14.2580    0.1371    0.0000 H       1  UNL1        0.0421
     58 H           6.8671    0.2577    0.0000 H       1  UNL1        0.0689
     59 H           6.0010   -1.4823    0.0000 H       1  UNL1        0.0626
     60 H          15.2813    0.0711    0.0000 H       1  UNL1        0.0306
     61 H          16.1291    0.2948    0.0000 H       1  UNL1        0.0306
     62 H          15.9054    1.1426    0.0000 H       1  UNL1        0.0306
     63 H           5.6720    0.9477    0.0000 H       1  UNL1        0.0625
     64 H           4.2690   -1.4823    0.0000 H       1  UNL1        0.0625
     65 H           4.2690    1.7577    0.0000 H       1  UNL1        0.0654
     66 H           2.8660   -0.6723    0.0000 H       1  UNL1        0.0654
     67 H           2.0000    0.8277    0.0000 H       1  UNL1        0.2921
@<TRIPOS>BOND
     1     1    14    1
     2     1    16    1
     3    12     2    1
     4     2    24    1
     5    13     3    1
     6     3    47    1
     7    15     4    1
     8     4    48    1
     9     5    19   ar
    10     5    26   ar
    11     6    18    1
    12     6    50    1
    13     7    20    1
    14     7    55    1
    15     8    24    2
    16     9    25    2
    17    10    31    2
    18    11    39    1
    19    11    67    1
    20    12    13    1
    21    12    14    1
    22    12    40    1
    23    13    15    1
    24    13    41    1
    25    14    17    1
    26    14    42    1
    27    15    16    1
    28    15    43    1
    29    16    18    1
    30    16    44    1
    31    17    19   ar
    32    17    20   ar
    33    18    45    1
    34    18    46    1
    35    19    21   ar
    36    20    23   ar
    37    21    22   ar
    38    21    25   ar
    39    22    23   ar
    40    22    27    1
    41    23    49    1
    42    24    30    1
    43    25    28   ar
    44    26    28   ar
    45    26    29    1
    46    27    51    1
    47    27    52    1
    48    27    53    1
    49    28    54    1
    50    29    31    1
    51    29    56    1
    52    29    57    1
    53    30    32    2
    54    30    58    1
    55    31    34    1
    56    32    33    1
    57    32    59    1
    58    33    35   ar
    59    33    36   ar
    60    34    60    1
    61    34    61    1
    62    34    62    1
    63    35    37   ar
    64    35    63    1
    65    36    38   ar
    66    36    64    1
    67    37    39   ar
    68    37    65    1
    69    38    39   ar
    70    38    66    1
