@<TRIPOS>MOLECULE
IMPHY000721
 86 90 0 0 0
SMALL
GASTEIGER

@<TRIPOS>ATOM
      1 O          10.5680    0.2399    0.0000 O.2     1  UNL1       -0.2917
      2 O           9.8100   -3.5746    0.0000 O.3     1  UNL1       -0.5056
      3 O           9.8100   -0.1105    0.0000 O.3     1  UNL1       -0.5064
      4 O          16.0062    0.1574    0.0000 O.3     1  UNL1       -0.5068
      5 O          11.9355    3.0086    0.0000 O.3     1  UNL1       -0.5063
      6 O          14.5892    0.7819    0.0000 O.3     1  UNL1       -0.5063
      7 O           8.3100   -4.4406    0.0000 O.2     1  UNL1       -0.2872
      8 O           2.3100   -4.4407    0.0000 O.3     1  UNL1       -0.5068
      9 C          11.6760   -1.3426    0.0000 C.3     1  UNL1        0.0396
     10 C          12.5421   -1.8426    0.0000 C.3     1  UNL1       -0.0015
     11 C          10.8100   -1.8426    0.0000 C.3     1  UNL1        0.0198
     12 C          12.5421   -2.8426    0.0000 C.3     1  UNL1       -0.0245
     13 C          11.6760   -3.3426    0.0000 C.2     1  UNL1       -0.0753
     14 C          10.8100   -2.8426    0.0000 C.2     1  UNL1       -0.0767
     15 C          13.4081   -1.3426    0.0000 C.ar    1  UNL1       -0.0430
     16 C           9.8100   -1.8426    0.0000 C.ar    1  UNL1        0.0436
     17 C          11.3340   -0.4029    0.0000 C.2     1  UNL1        0.1679
     18 C          11.6760   -4.3426    0.0000 C.3     1  UNL1       -0.0437
     19 C          11.9768    0.3631    0.0000 C.ar    1  UNL1        0.0246
     20 C           9.3100   -2.7085    0.0000 C.ar    1  UNL1        0.1348
     21 C          14.2741   -1.8426    0.0000 C.ar    1  UNL1       -0.0548
     22 C          13.4081   -0.3426    0.0000 C.ar    1  UNL1       -0.0548
     23 C           9.3100   -0.9766    0.0000 C.ar    1  UNL1        0.1241
     24 C           8.3100   -2.7086    0.0000 C.ar    1  UNL1        0.0635
     25 C           8.3100   -0.9766    0.0000 C.ar    1  UNL1       -0.0190
     26 C          15.1401   -1.3426    0.0000 C.ar    1  UNL1       -0.0199
     27 C          14.2741    0.1574    0.0000 C.ar    1  UNL1       -0.0199
     28 C          12.9616    0.1895    0.0000 C.ar    1  UNL1       -0.0092
     29 C          11.6348    1.3028    0.0000 C.ar    1  UNL1       -0.0092
     30 C           7.8100   -1.8426    0.0000 C.ar    1  UNL1       -0.0440
     31 C          15.1401   -0.3426    0.0000 C.ar    1  UNL1        0.1169
     32 C          12.2776    2.0689    0.0000 C.ar    1  UNL1        0.1245
     33 C          13.6044    0.9555    0.0000 C.ar    1  UNL1        0.1245
     34 C          13.2624    1.8952    0.0000 C.ar    1  UNL1        0.0391
     35 C           7.8100   -3.5746    0.0000 C.2     1  UNL1        0.1896
     36 C          13.9052    2.6613    0.0000 C.3     1  UNL1       -0.0023
     37 C           6.8100   -3.5746    0.0000 C.2     1  UNL1       -0.0137
     38 C          13.5631    3.6010    0.0000 C.2     1  UNL1       -0.0807
     39 C           6.3100   -4.4406    0.0000 C.2     1  UNL1       -0.0510
     40 C          14.2059    4.3670    0.0000 C.2     1  UNL1       -0.0793
     41 C           5.3100   -4.4407    0.0000 C.ar    1  UNL1       -0.0247
     42 C          13.8639    5.3067    0.0000 C.3     1  UNL1       -0.0440
     43 C          15.1907    4.1934    0.0000 C.3     1  UNL1       -0.0440
     44 C           4.8100   -5.3066    0.0000 C.ar    1  UNL1       -0.0511
     45 C           4.8100   -3.5746    0.0000 C.ar    1  UNL1       -0.0511
     46 C           3.8100   -5.3067    0.0000 C.ar    1  UNL1       -0.0196
     47 C           3.8100   -3.5746    0.0000 C.ar    1  UNL1       -0.0196
     48 C           3.3100   -4.4407    0.0000 C.ar    1  UNL1        0.1169
     49 H          12.1510   -0.9441    0.0000 H       1  UNL1        0.0396
     50 H          12.5421   -1.2226    0.0000 H       1  UNL1        0.0359
     51 H          10.5900   -1.0216    0.0000 H       1  UNL1        0.0401
     52 H          12.7541   -3.4252    0.0000 H       1  UNL1        0.0316
     53 H          13.1526   -2.7349    0.0000 H       1  UNL1        0.0316
     54 H          10.2731   -3.1526    0.0000 H       1  UNL1        0.0578
     55 H          11.0560   -4.3426    0.0000 H       1  UNL1        0.0274
     56 H          11.6760   -4.9626    0.0000 H       1  UNL1        0.0274
     57 H          12.2960   -4.3426    0.0000 H       1  UNL1        0.0274
     58 H          14.2741   -2.4626    0.0000 H       1  UNL1        0.0622
     59 H          12.8711   -0.0326    0.0000 H       1  UNL1        0.0622
     60 H           8.0000   -0.4396    0.0000 H       1  UNL1        0.0654
     61 H          15.6771   -1.6526    0.0000 H       1  UNL1        0.0654
     62 H          14.2741    0.7774    0.0000 H       1  UNL1        0.0654
     63 H          13.1737   -0.3931    0.0000 H       1  UNL1        0.0661
     64 H          11.0242    1.4105    0.0000 H       1  UNL1        0.0661
     65 H           7.1900   -1.8426    0.0000 H       1  UNL1        0.0627
     66 H           9.5000   -4.1116    0.0000 H       1  UNL1        0.2922
     67 H           9.5000    0.4264    0.0000 H       1  UNL1        0.2921
     68 H          14.3037    2.1863    0.0000 H       1  UNL1        0.0358
     69 H          14.4421    2.9713    0.0000 H       1  UNL1        0.0358
     70 H          16.5431   -0.1526    0.0000 H       1  UNL1        0.2921
     71 H           6.5000   -3.0377    0.0000 H       1  UNL1        0.0656
     72 H          11.3250    3.1162    0.0000 H       1  UNL1        0.2921
     73 H          14.9877    1.2568    0.0000 H       1  UNL1        0.2921
     74 H          12.9526    3.7086    0.0000 H       1  UNL1        0.0575
     75 H           6.6200   -4.9775    0.0000 H       1  UNL1        0.0625
     76 H          14.4465    5.5188    0.0000 H       1  UNL1        0.0274
     77 H          13.6519    5.8893    0.0000 H       1  UNL1        0.0274
     78 H          13.2813    5.0946    0.0000 H       1  UNL1        0.0274
     79 H          15.0831    3.5828    0.0000 H       1  UNL1        0.0274
     80 H          15.8013    4.0857    0.0000 H       1  UNL1        0.0274
     81 H          15.2984    4.8039    0.0000 H       1  UNL1        0.0274
     82 H           5.1200   -5.8435    0.0000 H       1  UNL1        0.0625
     83 H           5.1200   -3.0377    0.0000 H       1  UNL1        0.0625
     84 H           3.5000   -5.8436    0.0000 H       1  UNL1        0.0654
     85 H           3.5000   -3.0377    0.0000 H       1  UNL1        0.0654
     86 H           2.0000   -4.9776    0.0000 H       1  UNL1        0.2921
@<TRIPOS>BOND
     1     1    17    2
     2     2    20    1
     3     2    66    1
     4     3    23    1
     5     3    67    1
     6     4    31    1
     7     4    70    1
     8     5    32    1
     9     5    72    1
    10     6    33    1
    11     6    73    1
    12     7    35    2
    13     8    48    1
    14     8    86    1
    15     9    10    1
    16     9    11    1
    17     9    17    1
    18     9    49    1
    19    10    12    1
    20    10    15    1
    21    10    50    1
    22    11    14    1
    23    11    16    1
    24    11    51    1
    25    12    13    1
    26    12    52    1
    27    12    53    1
    28    13    14    2
    29    13    18    1
    30    14    54    1
    31    15    21   ar
    32    15    22   ar
    33    16    20   ar
    34    16    23   ar
    35    17    19    1
    36    18    55    1
    37    18    56    1
    38    18    57    1
    39    19    28   ar
    40    19    29   ar
    41    20    24   ar
    42    21    26   ar
    43    21    58    1
    44    22    27   ar
    45    22    59    1
    46    23    25   ar
    47    24    30   ar
    48    24    35    1
    49    25    30   ar
    50    25    60    1
    51    26    31   ar
    52    26    61    1
    53    27    31   ar
    54    27    62    1
    55    28    33   ar
    56    28    63    1
    57    29    32   ar
    58    29    64    1
    59    30    65    1
    60    32    34   ar
    61    33    34   ar
    62    34    36    1
    63    35    37    1
    64    36    38    1
    65    36    68    1
    66    36    69    1
    67    37    39    2
    68    37    71    1
    69    38    40    2
    70    38    74    1
    71    39    41    1
    72    39    75    1
    73    40    42    1
    74    40    43    1
    75    41    44   ar
    76    41    45   ar
    77    42    76    1
    78    42    77    1
    79    42    78    1
    80    43    79    1
    81    43    80    1
    82    43    81    1
    83    44    46   ar
    84    44    82    1
    85    45    47   ar
    86    45    83    1
    87    46    48   ar
    88    46    84    1
    89    47    48   ar
    90    47    85    1
