@<TRIPOS>MOLECULE
IMPHY009040
 36 36 0 0 0
SMALL
GASTEIGER

@<TRIPOS>ATOM
      1 O           6.3301   -3.3450    0.0000 O.3     1  UNL1       -0.5065
      2 O           8.0622    2.6550    0.0000 O.3     1  UNL1       -0.4649
      3 O           6.3301    2.6550    0.0000 O.2     1  UNL1       -0.2456
      4 C           5.4641   -1.8450    0.0000 C.ar    1  UNL1       -0.0017
      5 C           4.5981   -2.3450    0.0000 C.3     1  UNL1       -0.0058
      6 C           5.4641   -0.8450    0.0000 C.ar    1  UNL1       -0.0476
      7 C           6.3301   -2.3450    0.0000 C.ar    1  UNL1        0.1203
      8 C           3.7320   -1.8450    0.0000 C.2     1  UNL1       -0.0809
      9 C           6.3301   -0.3450    0.0000 C.ar    1  UNL1       -0.0243
     10 C           2.8660   -2.3450    0.0000 C.2     1  UNL1       -0.0793
     11 C           7.1962   -1.8450    0.0000 C.ar    1  UNL1       -0.0193
     12 C           7.1962   -0.8450    0.0000 C.ar    1  UNL1       -0.0511
     13 C           6.3301    0.6550    0.0000 C.2     1  UNL1       -0.0478
     14 C           2.0000   -1.8450    0.0000 C.3     1  UNL1       -0.0440
     15 C           2.8660   -3.3450    0.0000 C.3     1  UNL1       -0.0440
     16 C           7.1962    1.1550    0.0000 C.2     1  UNL1        0.0230
     17 C           7.1962    2.1550    0.0000 C.2     1  UNL1        0.3317
     18 C           8.0622    3.6550    0.0000 C.3     1  UNL1        0.0820
     19 H           4.1996   -2.8200    0.0000 H       1  UNL1        0.0357
     20 H           4.9966   -2.8200    0.0000 H       1  UNL1        0.0357
     21 H           4.9272   -0.5350    0.0000 H       1  UNL1        0.0627
     22 H           3.7320   -1.2250    0.0000 H       1  UNL1        0.0575
     23 H           7.7331   -2.1550    0.0000 H       1  UNL1        0.0654
     24 H           7.7331   -0.5350    0.0000 H       1  UNL1        0.0625
     25 H           5.7932    0.9650    0.0000 H       1  UNL1        0.0626
     26 H           2.3100   -1.3081    0.0000 H       1  UNL1        0.0274
     27 H           2.2460   -3.3450    0.0000 H       1  UNL1        0.0274
     28 H           2.8660   -3.9650    0.0000 H       1  UNL1        0.0274
     29 H           3.4860   -3.3450    0.0000 H       1  UNL1        0.0274
     30 H           1.4631   -1.5350    0.0000 H       1  UNL1        0.0274
     31 H           1.6900   -2.3819    0.0000 H       1  UNL1        0.0274
     32 H           6.8671   -3.6550    0.0000 H       1  UNL1        0.2921
     33 H           7.7331    0.8450    0.0000 H       1  UNL1        0.0689
     34 H           8.6822    3.6550    0.0000 H       1  UNL1        0.0661
     35 H           8.0622    4.2750    0.0000 H       1  UNL1        0.0661
     36 H           7.4422    3.6550    0.0000 H       1  UNL1        0.0661
@<TRIPOS>BOND
     1     1     7    1
     2     1    32    1
     3     2    17    1
     4     2    18    1
     5     3    17    2
     6     4     5    1
     7     4     6   ar
     8     4     7   ar
     9     5     8    1
    10     5    19    1
    11     5    20    1
    12     6     9   ar
    13     6    21    1
    14     7    11   ar
    15     8    10    2
    16     8    22    1
    17     9    12   ar
    18     9    13    1
    19    10    14    1
    20    10    15    1
    21    11    12   ar
    22    11    23    1
    23    12    24    1
    24    13    16    2
    25    13    25    1
    26    14    26    1
    27    14    30    1
    28    14    31    1
    29    15    27    1
    30    15    28    1
    31    15    29    1
    32    16    17    1
    33    16    33    1
    34    18    34    1
    35    18    35    1
    36    18    36    1
