@<TRIPOS>MOLECULE
IMPHY006446
 66 67 0 0 0
SMALL
GASTEIGER

@<TRIPOS>ATOM
      1 O           8.5991   -1.0950    0.0000 O.3     1  UNL1       -0.3405
      2 O           6.8671   -0.0950    0.0000 O.3     1  UNL1       -0.3460
      3 O           5.1350   -0.0950    0.0000 O.3     1  UNL1       -0.3405
      4 O          10.3312   -1.0950    0.0000 O.3     1  UNL1       -0.3461
      5 O           6.8671   -3.0950    0.0000 O.3     1  UNL1       -0.3865
      6 O           8.5991   -4.0950    0.0000 O.3     1  UNL1       -0.3864
      7 O          10.3312   -3.0950    0.0000 O.3     1  UNL1       -0.3841
      8 O           6.8671    1.9050    0.0000 O.3     1  UNL1       -0.3841
      9 O           5.1350    2.9050    0.0000 O.3     1  UNL1       -0.3864
     10 O           3.4030    1.9050    0.0000 O.3     1  UNL1       -0.3865
     11 O           2.5369    0.4050    0.0000 O.3     1  UNL1       -0.3924
     12 O          12.0632   -0.0950    0.0000 O.3     1  UNL1       -0.3869
     13 O          10.3312    1.9050    0.0000 O.3     1  UNL1       -0.3865
     14 O          12.9292    1.4050    0.0000 O.3     1  UNL1       -0.3861
     15 O          11.1972    3.4050    0.0000 O.3     1  UNL1       -0.3819
     16 O          12.9292    4.4050    0.0000 O.2     1  UNL1       -0.2982
     17 C           7.7331   -1.5950    0.0000 C.3     1  UNL1        0.1134
     18 C           7.7331   -2.5950    0.0000 C.3     1  UNL1        0.1119
     19 C           8.5991   -3.0950    0.0000 C.3     1  UNL1        0.1141
     20 C           9.4651   -2.5950    0.0000 C.3     1  UNL1        0.1341
     21 C           9.4651   -1.5950    0.0000 C.3     1  UNL1        0.1880
     22 C           6.0010    1.4050    0.0000 C.3     1  UNL1        0.1341
     23 C           6.0010    0.4050    0.0000 C.3     1  UNL1        0.1880
     24 C           5.1350    1.9050    0.0000 C.3     1  UNL1        0.1141
     25 C           4.2690    1.4050    0.0000 C.3     1  UNL1        0.1119
     26 C           6.8671   -1.0950    0.0000 C.3     1  UNL1        0.0796
     27 C           4.2690    0.4050    0.0000 C.3     1  UNL1        0.1130
     28 C           3.4030   -0.0950    0.0000 C.3     1  UNL1        0.0730
     29 C          10.3312   -0.0950    0.0000 C.3     1  UNL1        0.0792
     30 C          11.1972    0.4050    0.0000 C.3     1  UNL1        0.1069
     31 C          11.1972    1.4050    0.0000 C.3     1  UNL1        0.1118
     32 C          12.0632    1.9050    0.0000 C.3     1  UNL1        0.1159
     33 C          12.0632    2.9050    0.0000 C.3     1  UNL1        0.1381
     34 C          12.9292    3.4050    0.0000 C.2     1  UNL1        0.1512
     35 H           7.7331   -0.9750    0.0000 H       1  UNL1        0.0647
     36 H           7.7331   -3.2150    0.0000 H       1  UNL1        0.0647
     37 H           9.1360   -3.4050    0.0000 H       1  UNL1        0.0648
     38 H          10.0021   -2.2850    0.0000 H       1  UNL1        0.0671
     39 H           9.4651   -0.9750    0.0000 H       1  UNL1        0.0937
     40 H           6.5380    1.0950    0.0000 H       1  UNL1        0.0671
     41 H           6.0010   -0.2150    0.0000 H       1  UNL1        0.0937
     42 H           5.6720    2.2150    0.0000 H       1  UNL1        0.0648
     43 H           3.7320    1.0950    0.0000 H       1  UNL1        0.0647
     44 H           6.2565   -0.9873    0.0000 H       1  UNL1        0.0587
     45 H           6.6550   -1.6776    0.0000 H       1  UNL1        0.0587
     46 H           4.2690   -0.2150    0.0000 H       1  UNL1        0.0647
     47 H           3.0044   -0.5699    0.0000 H       1  UNL1        0.0584
     48 H           3.8015   -0.5699    0.0000 H       1  UNL1        0.0584
     49 H          10.1191    0.4876    0.0000 H       1  UNL1        0.0587
     50 H           9.7206   -0.2027    0.0000 H       1  UNL1        0.0587
     51 H           6.3301   -2.7850    0.0000 H       1  UNL1        0.2100
     52 H           8.0622   -4.4050    0.0000 H       1  UNL1        0.2100
     53 H          11.7341    0.7150    0.0000 H       1  UNL1        0.0643
     54 H          10.8681   -2.7850    0.0000 H       1  UNL1        0.2101
     55 H           6.8671    2.5250    0.0000 H       1  UNL1        0.2101
     56 H           4.5981    3.2150    0.0000 H       1  UNL1        0.2100
     57 H          11.1972    2.0250    0.0000 H       1  UNL1        0.0647
     58 H           3.4030    2.5250    0.0000 H       1  UNL1        0.2100
     59 H          12.6002    2.2150    0.0000 H       1  UNL1        0.0650
     60 H           2.0000    0.0950    0.0000 H       1  UNL1        0.2095
     61 H          12.0632    3.5250    0.0000 H       1  UNL1        0.0697
     62 H          12.6002    0.2150    0.0000 H       1  UNL1        0.2100
     63 H          10.3312    2.5250    0.0000 H       1  UNL1        0.2100
     64 H          13.4662    1.7150    0.0000 H       1  UNL1        0.2100
     65 H          13.4662    3.0950    0.0000 H       1  UNL1        0.1055
     66 H          11.1972    4.0250    0.0000 H       1  UNL1        0.2105
@<TRIPOS>BOND
     1     1    17    1
     2     1    21    1
     3    23     2    1
     4     2    26    1
     5     3    23    1
     6     3    27    1
     7    21     4    1
     8     4    29    1
     9    18     5    1
    10     5    51    1
    11    19     6    1
    12     6    52    1
    13    20     7    1
    14     7    54    1
    15    22     8    1
    16     8    55    1
    17    24     9    1
    18     9    56    1
    19    25    10    1
    20    10    58    1
    21    11    28    1
    22    11    60    1
    23    30    12    1
    24    12    62    1
    25    31    13    1
    26    13    63    1
    27    32    14    1
    28    14    64    1
    29    33    15    1
    30    15    66    1
    31    16    34    2
    32    17    18    1
    33    17    26    1
    34    17    35    1
    35    18    19    1
    36    18    36    1
    37    19    20    1
    38    19    37    1
    39    20    21    1
    40    20    38    1
    41    21    39    1
    42    22    23    1
    43    22    24    1
    44    22    40    1
    45    23    41    1
    46    24    25    1
    47    24    42    1
    48    25    27    1
    49    25    43    1
    50    26    44    1
    51    26    45    1
    52    27    28    1
    53    27    46    1
    54    28    47    1
    55    28    48    1
    56    29    30    1
    57    29    49    1
    58    29    50    1
    59    30    31    1
    60    30    53    1
    61    31    32    1
    62    31    57    1
    63    32    33    1
    64    32    59    1
    65    33    34    1
    66    33    61    1
    67    34    65    1
