@<TRIPOS>MOLECULE
IMPHY005786
 62 66 0 0 0
SMALL
GASTEIGER

@<TRIPOS>ATOM
      1 O           5.7663   -0.6866    0.0000 O.3     1  UNL1       -0.4800
      2 O           8.3700   -0.2166    0.0000 O.3     1  UNL1       -0.4534
      3 O           7.4849   -3.7381    0.0000 O.3     1  UNL1       -0.5063
      4 O           8.4197    2.8621    0.0000 O.3     1  UNL1       -0.5033
      5 O           6.6380    3.8726    0.0000 O.3     1  UNL1       -0.5028
      6 O           3.9452   -3.7108    0.0000 O.3     1  UNL1       -0.5065
      7 O           5.1963    3.9364    0.0000 O.3     1  UNL1       -0.5027
      8 O           9.2186   -1.7266    0.0000 O.2     1  UNL1       -0.2449
      9 O           3.3754    3.5208    0.0000 O.2     1  UNL1       -0.2840
     10 O           2.3866    0.3042    0.0000 O.3     1  UNL1       -0.4771
     11 O           3.7407   -0.7757    0.0000 O.2     1  UNL1       -0.2451
     12 O          10.9968    2.2532    0.0000 O.3     1  UNL1       -0.5032
     13 O          12.6940   -0.7667    0.0000 O.3     1  UNL1       -0.5032
     14 O          12.7171    1.2332    0.0000 O.3     1  UNL1       -0.5009
     15 C           6.6380   -0.1966    0.0000 C.3     1  UNL1        0.1628
     16 C           7.4982   -0.7066    0.0000 C.3     1  UNL1        0.1483
     17 C           7.4866   -1.7065    0.0000 C.3     1  UNL1        0.0204
     18 C           6.6496    0.8033    0.0000 C.ar    1  UNL1        0.0077
     19 C           6.6149   -2.1965    0.0000 C.ar    1  UNL1        0.0395
     20 C           5.7547   -1.6865    0.0000 C.ar    1  UNL1        0.1318
     21 C           5.7556    1.3380    0.0000 C.ar    1  UNL1       -0.0030
     22 C           7.5556    1.3172    0.0000 C.ar    1  UNL1       -0.0091
     23 C           6.6189   -3.2381    0.0000 C.ar    1  UNL1        0.1271
     24 C           5.7556    2.3380    0.0000 C.ar    1  UNL1        0.0728
     25 C           4.8389   -2.1828    0.0000 C.ar    1  UNL1        0.0221
     26 C           7.5556    2.3588    0.0000 C.ar    1  UNL1        0.1594
     27 C           6.6496    2.8726    0.0000 C.ar    1  UNL1        0.1698
     28 C           4.9738    0.7145    0.0000 C.ar    1  UNL1       -0.0393
     29 C           5.7148   -3.7554    0.0000 C.ar    1  UNL1        0.0218
     30 C           4.8188   -3.2242    0.0000 C.ar    1  UNL1        0.1238
     31 C           9.2301   -0.7266    0.0000 C.2     1  UNL1        0.3398
     32 C           4.9738    2.9615    0.0000 C.ar    1  UNL1        0.1751
     33 C           3.9989    0.9370    0.0000 C.ar    1  UNL1        0.0632
     34 C           3.9989    2.7390    0.0000 C.ar    1  UNL1        0.2215
     35 C          10.1019   -0.2367    0.0000 C.ar    1  UNL1        0.0661
     36 C           3.5650    1.8380    0.0000 C.ar    1  UNL1        0.0027
     37 C           3.3754    0.1552    0.0000 C.2     1  UNL1        0.3369
     38 C          10.9621   -0.7467    0.0000 C.ar    1  UNL1       -0.0023
     39 C          10.1135    0.7633    0.0000 C.ar    1  UNL1       -0.0023
     40 C          10.9852    1.2532    0.0000 C.ar    1  UNL1        0.1628
     41 C          11.8338   -0.2567    0.0000 C.ar    1  UNL1        0.1628
     42 C          11.8454    0.7432    0.0000 C.ar    1  UNL1        0.2006
     43 H           7.1785    0.1072    0.0000 H       1  UNL1        0.0822
     44 H           8.0315   -1.0228    0.0000 H       1  UNL1        0.0778
     45 H           7.6920   -2.2916    0.0000 H       1  UNL1        0.0353
     46 H           8.0984   -1.6059    0.0000 H       1  UNL1        0.0353
     47 H           8.0914    1.0051    0.0000 H       1  UNL1        0.0659
     48 H           4.3093   -1.8605    0.0000 H       1  UNL1        0.0691
     49 H           5.1118    0.1100    0.0000 H       1  UNL1        0.0632
     50 H           5.7100   -4.3754    0.0000 H       1  UNL1        0.0691
     51 H           7.4849   -4.3581    0.0000 H       1  UNL1        0.2921
     52 H           2.9450    1.8380    0.0000 H       1  UNL1        0.0665
     53 H           8.9579    2.5542    0.0000 H       1  UNL1        0.2923
     54 H           7.1713    4.1888    0.0000 H       1  UNL1        0.2923
     55 H           3.9356   -4.3307    0.0000 H       1  UNL1        0.2921
     56 H          10.9549   -1.3666    0.0000 H       1  UNL1        0.0663
     57 H           9.5801    1.0794    0.0000 H       1  UNL1        0.0663
     58 H           4.7418    4.3581    0.0000 H       1  UNL1        0.2923
     59 H           2.0000   -0.1805    0.0000 H       1  UNL1        0.2954
     60 H          11.5373    2.5569    0.0000 H       1  UNL1        0.2923
     61 H          12.6868   -1.3866    0.0000 H       1  UNL1        0.2923
     62 H          13.2505    0.9170    0.0000 H       1  UNL1        0.2924
@<TRIPOS>BOND
     1     1    15    1
     2     1    20    1
     3     2    16    1
     4     2    31    1
     5     3    23    1
     6     3    51    1
     7     4    26    1
     8     4    53    1
     9     5    27    1
    10     5    54    1
    11     6    30    1
    12     6    55    1
    13     7    32    1
    14     7    58    1
    15     8    31    2
    16     9    34    2
    17    10    37    1
    18    10    59    1
    19    11    37    2
    20    12    40    1
    21    12    60    1
    22    13    41    1
    23    13    61    1
    24    14    42    1
    25    14    62    1
    26    15    16    1
    27    15    18    1
    28    15    43    1
    29    16    17    1
    30    16    44    1
    31    17    19    1
    32    17    45    1
    33    17    46    1
    34    18    21   ar
    35    18    22   ar
    36    19    20   ar
    37    19    23   ar
    38    20    25   ar
    39    21    24   ar
    40    21    28   ar
    41    22    26   ar
    42    22    47    1
    43    23    29   ar
    44    24    27   ar
    45    24    32   ar
    46    25    30   ar
    47    25    48    1
    48    26    27   ar
    49    28    33   ar
    50    28    49    1
    51    29    30   ar
    52    29    50    1
    53    31    35    1
    54    32    34   ar
    55    33    36   ar
    56    33    37    1
    57    34    36   ar
    58    35    38   ar
    59    35    39   ar
    60    36    52    1
    61    38    41   ar
    62    38    56    1
    63    39    40   ar
    64    39    57    1
    65    40    42   ar
    66    41    42   ar
