@<TRIPOS>MOLECULE
IMPHY010409
 73 77 0 0 0
SMALL
GASTEIGER

@<TRIPOS>ATOM
      1 O           6.8671   -1.7857    0.0000 O.3     1  UNL1       -0.3366
      2 O           5.1350    0.2143    0.0000 O.3     1  UNL1       -0.3313
      3 O           6.0010   -3.2857    0.0000 O.3     1  UNL1       -0.3431
      4 O           6.8671    0.2143    0.0000 O.3     1  UNL1       -0.4532
      5 O           5.1350   -2.7857    0.0000 O.3     1  UNL1       -0.3863
      6 O           3.4030   -1.7857    0.0000 O.3     1  UNL1       -0.3865
      7 O           8.5991   -2.7857    0.0000 O.3     1  UNL1       -0.3841
      8 O           8.5991   -4.7857    0.0000 O.3     1  UNL1       -0.3864
      9 O           6.8671   -5.7857    0.0000 O.3     1  UNL1       -0.3866
     10 O           2.5369   -0.2857    0.0000 O.3     1  UNL1       -0.3924
     11 O           7.7331    2.7143    0.0000 O.2     1  UNL1       -0.4507
     12 O           5.1350    1.2143    0.0000 O.2     1  UNL1       -0.2830
     13 O           4.2308    2.7112    0.0000 O.3     1  UNL1       -0.5058
     14 O           5.9889    5.7836    0.0000 O.3     1  UNL1       -0.5065
     15 O          11.1972    1.7143    0.0000 O.3     1  UNL1       -0.5033
     16 O          11.1972   -0.2857    0.0000 O.3     1  UNL1       -0.5033
     17 C           6.0010   -1.2857    0.0000 C.3     1  UNL1        0.1519
     18 C           5.1350   -1.7857    0.0000 C.3     1  UNL1        0.1155
     19 C           4.2690   -1.2857    0.0000 C.3     1  UNL1        0.1120
     20 C           6.8671   -2.7857    0.0000 C.3     1  UNL1        0.1885
     21 C           6.0010   -0.2857    0.0000 C.3     1  UNL1        0.2315
     22 C           7.7331   -3.2857    0.0000 C.3     1  UNL1        0.1341
     23 C           4.2690   -0.2857    0.0000 C.3     1  UNL1        0.1140
     24 C           7.7331   -4.2857    0.0000 C.3     1  UNL1        0.1140
     25 C           6.8671   -4.7857    0.0000 C.3     1  UNL1        0.1095
     26 C           6.0010   -4.2857    0.0000 C.3     1  UNL1        0.0873
     27 C           3.4030    0.2143    0.0000 C.3     1  UNL1        0.0731
     28 C           5.1350   -4.7857    0.0000 C.3     1  UNL1       -0.0361
     29 C           6.8671    1.2143    0.0000 C.ar    1  UNL1        0.2138
     30 C           7.7331    1.7143    0.0000 C.ar    1  UNL1        0.1810
     31 C           6.0010    1.7143    0.0000 C.ar    1  UNL1        0.2382
     32 C           6.0010    2.7143    0.0000 C.ar    1  UNL1        0.1092
     33 C           8.5991    1.2143    0.0000 C.ar    1  UNL1        0.0247
     34 C           6.8671    3.2143    0.0000 C.ar    1  UNL1        0.1465
     35 C           5.0910    3.2212    0.0000 C.ar    1  UNL1        0.1348
     36 C           6.8831    4.2558    0.0000 C.ar    1  UNL1        0.0231
     37 C           9.4651    1.7143    0.0000 C.ar    1  UNL1       -0.0057
     38 C           8.5991    0.2143    0.0000 C.ar    1  UNL1       -0.0473
     39 C           5.0830    4.2628    0.0000 C.ar    1  UNL1        0.0223
     40 C           5.9851    4.7836    0.0000 C.ar    1  UNL1        0.1239
     41 C          10.3312    1.2143    0.0000 C.ar    1  UNL1        0.1589
     42 C           9.4651   -0.2857    0.0000 C.ar    1  UNL1       -0.0159
     43 C          10.3312    0.2143    0.0000 C.ar    1  UNL1        0.1583
     44 H           6.0010   -1.9057    0.0000 H       1  UNL1        0.0687
     45 H           4.5981   -2.0957    0.0000 H       1  UNL1        0.0648
     46 H           4.2690   -1.9057    0.0000 H       1  UNL1        0.0647
     47 H           7.4040   -2.4757    0.0000 H       1  UNL1        0.0938
     48 H           6.0010    0.3343    0.0000 H       1  UNL1        0.1084
     49 H           8.2700   -3.5957    0.0000 H       1  UNL1        0.0671
     50 H           4.2690    0.3343    0.0000 H       1  UNL1        0.0647
     51 H           7.7331   -4.9057    0.0000 H       1  UNL1        0.0648
     52 H           7.4040   -5.0957    0.0000 H       1  UNL1        0.0646
     53 H           5.4641   -3.9757    0.0000 H       1  UNL1        0.0621
     54 H           3.8015    0.6893    0.0000 H       1  UNL1        0.0584
     55 H           3.0044    0.6893    0.0000 H       1  UNL1        0.0584
     56 H           4.8250   -4.2487    0.0000 H       1  UNL1        0.0255
     57 H           4.5981   -5.0957    0.0000 H       1  UNL1        0.0255
     58 H           5.4450   -5.3226    0.0000 H       1  UNL1        0.0255
     59 H           4.5981   -3.0957    0.0000 H       1  UNL1        0.2100
     60 H           3.4030   -2.4057    0.0000 H       1  UNL1        0.2100
     61 H           9.1360   -3.0957    0.0000 H       1  UNL1        0.2101
     62 H           8.5991   -5.4057    0.0000 H       1  UNL1        0.2100
     63 H           6.3301   -6.0957    0.0000 H       1  UNL1        0.2100
     64 H           2.0000    0.0243    0.0000 H       1  UNL1        0.2095
     65 H           7.4236    4.5596    0.0000 H       1  UNL1        0.0691
     66 H           9.4651    2.3343    0.0000 H       1  UNL1        0.0662
     67 H           8.0622   -0.0957    0.0000 H       1  UNL1        0.0626
     68 H           4.5449    4.5707    0.0000 H       1  UNL1        0.0691
     69 H           9.4651   -0.9057    0.0000 H       1  UNL1        0.0655
     70 H           3.6904    3.0150    0.0000 H       1  UNL1        0.2922
     71 H           5.4532    6.0957    0.0000 H       1  UNL1        0.2921
     72 H          11.1972    2.3343    0.0000 H       1  UNL1        0.2923
     73 H          11.1972   -0.9057    0.0000 H       1  UNL1        0.2923
@<TRIPOS>BOND
     1    17     1    1
     2    20     1    1
     3     2    21    1
     4     2    23    1
     5     3    20    1
     6     3    26    1
     7    21     4    1
     8     4    29    1
     9    18     5    1
    10     5    59    1
    11    19     6    1
    12     6    60    1
    13    22     7    1
    14     7    61    1
    15    24     8    1
    16     8    62    1
    17    25     9    1
    18     9    63    1
    19    10    27    1
    20    10    64    1
    21    11    30   ar
    22    11    34   ar
    23    12    31    2
    24    13    35    1
    25    13    70    1
    26    14    40    1
    27    14    71    1
    28    15    41    1
    29    15    72    1
    30    16    43    1
    31    16    73    1
    32    17    18    1
    33    17    21    1
    34    17    44    1
    35    18    19    1
    36    18    45    1
    37    19    23    1
    38    19    46    1
    39    20    22    1
    40    20    47    1
    41    21    48    1
    42    22    24    1
    43    22    49    1
    44    23    27    1
    45    23    50    1
    46    24    25    1
    47    24    51    1
    48    25    26    1
    49    25    52    1
    50    26    28    1
    51    26    53    1
    52    27    54    1
    53    27    55    1
    54    28    56    1
    55    28    57    1
    56    28    58    1
    57    29    30   ar
    58    29    31   ar
    59    30    33    1
    60    31    32   ar
    61    32    34   ar
    62    32    35   ar
    63    33    37   ar
    64    33    38   ar
    65    34    36   ar
    66    35    39   ar
    67    36    40   ar
    68    36    65    1
    69    37    41   ar
    70    37    66    1
    71    38    42   ar
    72    38    67    1
    73    39    40   ar
    74    39    68    1
    75    41    43   ar
    76    42    43   ar
    77    42    69    1
