@<TRIPOS>MOLECULE
IMPHY017041
 20 20 0 0 0
SMALL
GASTEIGER

@<TRIPOS>ATOM
      1 O           2.8660    1.8450    0.0000 O.3     1  UNL1       -0.3915
      2 C           2.8660    0.8450    0.0000 C.3     1  UNL1        0.0589
      3 C           2.0000    0.3450    0.0000 C.3     1  UNL1       -0.0229
      4 C           2.0000   -0.6550    0.0000 C.3     1  UNL1       -0.0297
      5 C           3.7320    0.3450    0.0000 C.3     1  UNL1       -0.0084
      6 C           2.8660   -1.1550    0.0000 C.2     1  UNL1       -0.0764
      7 C           3.7320   -0.6550    0.0000 C.2     1  UNL1       -0.0826
      8 C           2.8660   -2.1550    0.0000 C.3     1  UNL1       -0.0438
      9 H           3.4030    1.1550    0.0000 H       1  UNL1        0.0596
     10 H           1.7880    0.9276    0.0000 H       1  UNL1        0.0293
     11 H           1.3894    0.2373    0.0000 H       1  UNL1        0.0293
     12 H           1.3894   -0.5473    0.0000 H       1  UNL1        0.0311
     13 H           1.7880   -1.2376    0.0000 H       1  UNL1        0.0311
     14 H           4.3426    0.2373    0.0000 H       1  UNL1        0.0332
     15 H           3.9441    0.9276    0.0000 H       1  UNL1        0.0332
     16 H           4.2690   -0.9650    0.0000 H       1  UNL1        0.0572
     17 H           2.2460   -2.1550    0.0000 H       1  UNL1        0.0274
     18 H           2.8660   -2.7750    0.0000 H       1  UNL1        0.0274
     19 H           3.4860   -2.1550    0.0000 H       1  UNL1        0.0274
     20 H           3.4030    2.1550    0.0000 H       1  UNL1        0.2098
@<TRIPOS>BOND
     1     1     2    1
     2     1    20    1
     3     2     3    1
     4     2     5    1
     5     2     9    1
     6     3     4    1
     7     3    10    1
     8     3    11    1
     9     4     6    1
    10     4    12    1
    11     4    13    1
    12     5     7    1
    13     5    14    1
    14     5    15    1
    15     6     7    2
    16     6     8    1
    17     7    16    1
    18     8    17    1
    19     8    18    1
    20     8    19    1
