@<TRIPOS>MOLECULE
IMPHY012448
 47 50 0 0 0
SMALL
GASTEIGER

@<TRIPOS>ATOM
      1 O           7.9110    0.7138    0.0000 O.3     1  UNL1       -0.4526
      2 O           9.3629    1.5521    0.0000 O.3     1  UNL1       -0.4526
      3 O           3.2255    6.3730    0.0000 O.3     1  UNL1       -0.4910
      4 O           1.4061    5.3412    0.0000 O.3     1  UNL1       -0.4914
      5 O           4.2653    9.4841    0.0000 O.co2   2  HOH2       -0.8710
      6 N           5.9451    4.7954    0.0000 N.2     1  UNL1       -0.2265
      7 C           5.9451    3.7954    0.0000 C.2     1  UNL1        0.1909
      8 C           6.8111    5.2954    0.0000 C.3     1  UNL1        0.1496
      9 C           5.0512    5.3300    0.0000 C.3     1  UNL1        0.1744
     10 C           5.0512    3.2607    0.0000 C.3     1  UNL1        0.0583
     11 C           6.8111    3.2954    0.0000 C.ar    1  UNL1        0.0487
     12 C           7.6772    4.7954    0.0000 C.3     1  UNL1        0.0326
     13 C           7.6772    3.7954    0.0000 C.ar    1  UNL1       -0.0246
     14 C           4.1451    4.8162    0.0000 C.ar    1  UNL1        0.0656
     15 C           4.1451    3.7746    0.0000 C.ar    1  UNL1       -0.0244
     16 C           6.7951    2.2539    0.0000 C.ar    1  UNL1       -0.0028
     17 C           8.5872    3.2885    0.0000 C.ar    1  UNL1       -0.0120
     18 C           3.2140    5.3731    0.0000 C.ar    1  UNL1        0.1709
     19 C           3.2140    3.2176    0.0000 C.ar    1  UNL1       -0.0539
     20 C           7.6931    1.7261    0.0000 C.ar    1  UNL1        0.1670
     21 C           8.5952    2.2469    0.0000 C.ar    1  UNL1        0.1665
     22 C           2.2702    4.8379    0.0000 C.ar    1  UNL1        0.1620
     23 C           2.2702    3.7529    0.0000 C.ar    1  UNL1       -0.0160
     24 C           8.9409    0.6065    0.0000 C.3     1  UNL1        0.2332
     25 C           2.3653    6.8830    0.0000 C.3     1  UNL1        0.0790
     26 C           0.5381    4.8445    0.0000 C.3     1  UNL1        0.0790
     27 H           7.2097    5.7703    0.0000 H       1  UNL1        0.1029
     28 H           6.4126    5.7703    0.0000 H       1  UNL1        0.1029
     29 H           5.4558    5.7998    0.0000 H       1  UNL1        0.1082
     30 H           4.6575    5.8090    0.0000 H       1  UNL1        0.1082
     31 H           4.6575    2.7817    0.0000 H       1  UNL1        0.0421
     32 H           5.4558    2.7909    0.0000 H       1  UNL1        0.0421
     33 H           8.2878    4.6877    0.0000 H       1  UNL1        0.0375
     34 H           7.8892    5.3780    0.0000 H       1  UNL1        0.0375
     35 H           6.2546    1.9501    0.0000 H       1  UNL1        0.0663
     36 H           9.1205    3.6047    0.0000 H       1  UNL1        0.0658
     37 H           3.2211    2.5977    0.0000 H       1  UNL1        0.0622
     38 H           1.7344    3.4408    0.0000 H       1  UNL1        0.0655
     39 H           8.8122    0.0000    0.0000 H       1  UNL1        0.1166
     40 H           9.5305    0.4147    0.0000 H       1  UNL1        0.1166
     41 H           2.6815    7.4163    0.0000 H       1  UNL1        0.0660
     42 H           1.8320    7.1992    0.0000 H       1  UNL1        0.0660
     43 H           2.0491    6.3497    0.0000 H       1  UNL1        0.0660
     44 H           0.2302    5.3827    0.0000 H       1  UNL1        0.0660
     45 H           0.0000    4.5366    0.0000 H       1  UNL1        0.0660
     46 H           0.8461    4.3064    0.0000 H       1  UNL1        0.0660
     47 H           5.2653    9.4841    0.0000 H       0  HOH0       -0.1290
@<TRIPOS>UNITY_ATOM_ATTR
5 1
charge -1
6 1
charge 1
@<TRIPOS>BOND
     1     1    20    1
     2     1    24    1
     3     2    21    1
     4     2    24    1
     5     3    18    1
     6     3    25    1
     7     4    22    1
     8     4    26    1
     9     5    47    1
    10     6     7    2
    11     6     8    1
    12     6     9    1
    13     7    10    1
    14     7    11    1
    15     8    12    1
    16     8    27    1
    17     8    28    1
    18     9    14    1
    19     9    29    1
    20     9    30    1
    21    10    15    1
    22    10    31    1
    23    10    32    1
    24    11    13   ar
    25    11    16   ar
    26    12    13    1
    27    12    33    1
    28    12    34    1
    29    13    17   ar
    30    14    15   ar
    31    14    18   ar
    32    15    19   ar
    33    16    20   ar
    34    16    35    1
    35    17    21   ar
    36    17    36    1
    37    18    22   ar
    38    19    23   ar
    39    19    37    1
    40    20    21   ar
    41    22    23   ar
    42    23    38    1
    43    24    39    1
    44    24    40    1
    45    25    41    1
    46    25    42    1
    47    25    43    1
    48    26    44    1
    49    26    45    1
    50    26    46    1
