@<TRIPOS>MOLECULE
IMPHY017082
 26 27 0 0 0
SMALL
GASTEIGER

@<TRIPOS>ATOM
      1 C           4.1881    0.5039    0.0000 C.2     1  UNL1       -0.0703
      2 C           4.1931   -0.4961    0.0000 C.2     1  UNL1       -0.0703
      3 C           5.1328    0.8133    0.0000 C.3     1  UNL1       -0.0312
      4 C           5.1408   -0.7961    0.0000 C.3     1  UNL1       -0.0312
      5 C           3.4032    1.1235    0.0000 C.3     1  UNL1       -0.0315
      6 C           3.4144   -1.1235    0.0000 C.3     1  UNL1       -0.0315
      7 C           5.7204    0.0115    0.0000 C.3     1  UNL1       -0.0457
      8 C           2.4294    0.8961    0.0000 C.3     1  UNL1       -0.0493
      9 C           2.4384   -0.9058    0.0000 C.3     1  UNL1       -0.0493
     10 C           2.0000   -0.0070    0.0000 C.3     1  UNL1       -0.0525
     11 H           5.6686    1.1252    0.0000 H       1  UNL1        0.0310
     12 H           4.8790    1.3790    0.0000 H       1  UNL1        0.0310
     13 H           4.8926   -1.3643    0.0000 H       1  UNL1        0.0310
     14 H           5.6798   -1.1026    0.0000 H       1  UNL1        0.0310
     15 H           3.8860    1.5124    0.0000 H       1  UNL1        0.0310
     16 H           3.1314    1.6807    0.0000 H       1  UNL1        0.0310
     17 H           3.1482   -1.6834    0.0000 H       1  UNL1        0.0310
     18 H           3.9010   -1.5076    0.0000 H       1  UNL1        0.0310
     19 H           6.1834   -0.4009    0.0000 H       1  UNL1        0.0271
     20 H           6.1792    0.4285    0.0000 H       1  UNL1        0.0271
     21 H           2.4263    1.5161    0.0000 H       1  UNL1        0.0268
     22 H           1.8242    1.0310    0.0000 H       1  UNL1        0.0268
     23 H           1.8346   -1.0468    0.0000 H       1  UNL1        0.0268
     24 H           2.4415   -1.5258    0.0000 H       1  UNL1        0.0268
     25 H           1.5133    0.3771    0.0000 H       1  UNL1        0.0265
     26 H           1.5172   -0.3960    0.0000 H       1  UNL1        0.0265
@<TRIPOS>BOND
     1     1     2    2
     2     1     3    1
     3     1     5    1
     4     2     4    1
     5     2     6    1
     6     3     7    1
     7     3    11    1
     8     3    12    1
     9     4     7    1
    10     4    13    1
    11     4    14    1
    12     5     8    1
    13     5    15    1
    14     5    16    1
    15     6     9    1
    16     6    17    1
    17     6    18    1
    18     7    19    1
    19     7    20    1
    20     8    10    1
    21     8    21    1
    22     8    22    1
    23     9    10    1
    24     9    23    1
    25     9    24    1
    26    10    25    1
    27    10    26    1
