@<TRIPOS>MOLECULE
IMPHY003594
 82 87 0 0 0
SMALL
GASTEIGER

@<TRIPOS>ATOM
      1 O           7.7662    1.6674    0.0000 O.3     1  UNL1       -0.3877
      2 O           4.2939   -0.3741    0.0000 O.3     1  UNL1       -0.3944
      3 O           6.0010   -3.5361    0.0000 O.3     1  UNL1       -0.3454
      4 O           4.1621    5.1811    0.0000 O.3     1  UNL1       -0.4571
      5 O           4.2690   -3.5361    0.0000 O.3     1  UNL1       -0.3431
      6 O           4.7972    6.8461    0.0000 O.2     1  UNL1       -0.2456
      7 O           6.0010   -5.5361    0.0000 O.3     1  UNL1       -0.3841
      8 O           4.2690   -6.5361    0.0000 O.3     1  UNL1       -0.3864
      9 O           2.5369   -5.5361    0.0000 O.3     1  UNL1       -0.3866
     10 C           6.8982    2.1641    0.0000 C.3     1  UNL1        0.0751
     11 C           6.9021    1.1641    0.0000 C.3     1  UNL1       -0.0082
     12 C           6.0380    0.6608    0.0000 C.3     1  UNL1       -0.0276
     13 C           6.0303    2.6608    0.0000 C.3     1  UNL1        0.0036
     14 C           6.0260   -0.3808    0.0000 C.3     1  UNL1        0.0000
     15 C           6.9260   -0.9051    0.0000 C.3     1  UNL1       -0.0307
     16 C           5.1701    1.1574    0.0000 C.3     1  UNL1       -0.0487
     17 C           5.1662    2.1574    0.0000 C.3     1  UNL1       -0.0442
     18 C           6.2358    3.6334    0.0000 C.3     1  UNL1       -0.0081
     19 C           7.8140    0.6608    0.0000 C.3     1  UNL1       -0.0470
     20 C           7.6327    2.8340    0.0000 C.3     1  UNL1       -0.0226
     21 C           7.8261   -0.3808    0.0000 C.3     1  UNL1       -0.0492
     22 C           7.2241    3.7402    0.0000 C.3     1  UNL1       -0.0432
     23 C           5.0761   -0.9051    0.0000 C.3     1  UNL1       -0.0424
     24 C           6.9386   -1.9900    0.0000 C.3     1  UNL1       -0.0231
     25 C           5.1624    3.1574    0.0000 C.3     1  UNL1       -0.0564
     26 C           5.1619    0.1225    0.0000 C.3     1  UNL1        0.0503
     27 C           5.0635   -1.9900    0.0000 C.3     1  UNL1       -0.0259
     28 C           6.0010   -2.5361    0.0000 C.3     1  UNL1        0.0621
     29 C           5.5650    4.3751    0.0000 C.2     1  UNL1       -0.0222
     30 C           4.5708    4.2684    0.0000 C.3     1  UNL1        0.1147
     31 C           5.7709    5.3537    0.0000 C.2     1  UNL1        0.0252
     32 C           5.1350   -4.0361    0.0000 C.3     1  UNL1        0.1881
     33 C           4.9038    5.8518    0.0000 C.2     1  UNL1        0.3323
     34 C           5.1350   -5.0361    0.0000 C.3     1  UNL1        0.1341
     35 C           4.2690   -5.5361    0.0000 C.3     1  UNL1        0.1140
     36 C           3.4030   -4.0361    0.0000 C.3     1  UNL1        0.0873
     37 C           3.4030   -5.0361    0.0000 C.3     1  UNL1        0.1095
     38 C           2.5369   -3.5361    0.0000 C.3     1  UNL1       -0.0361
     39 H           7.6333    1.5976    0.0000 H       1  UNL1        0.0331
     40 H           6.7725    0.2329    0.0000 H       1  UNL1        0.0310
     41 H           7.6654   -1.3244    0.0000 H       1  UNL1        0.0308
     42 H           4.5591    1.2627    0.0000 H       1  UNL1        0.0268
     43 H           4.9602    0.5740    0.0000 H       1  UNL1        0.0268
     44 H           4.9519    2.7392    0.0000 H       1  UNL1        0.0272
     45 H           4.5560    2.0474    0.0000 H       1  UNL1        0.0272
     46 H           6.4565    4.2128    0.0000 H       1  UNL1        0.0353
     47 H           8.4261    0.5617    0.0000 H       1  UNL1        0.0269
     48 H           8.0163    1.2468    0.0000 H       1  UNL1        0.0269
     49 H           8.0000    2.3346    0.0000 H       1  UNL1        0.0293
     50 H           8.1680    3.1468    0.0000 H       1  UNL1        0.0293
     51 H           8.0419   -0.9620    0.0000 H       1  UNL1        0.0268
     52 H           8.4357   -0.2677    0.0000 H       1  UNL1        0.0268
     53 H           7.8129    3.9343    0.0000 H       1  UNL1        0.0272
     54 H           7.0930    4.3462    0.0000 H       1  UNL1        0.0272
     55 H           4.8738   -0.3190    0.0000 H       1  UNL1        0.0272
     56 H           4.4640   -1.0041    0.0000 H       1  UNL1        0.0272
     57 H           7.1544   -2.5712    0.0000 H       1  UNL1        0.0293
     58 H           7.5482   -1.8769    0.0000 H       1  UNL1        0.0293
     59 H           5.4703    3.6955    0.0000 H       1  UNL1        0.0236
     60 H           4.6242    3.4653    0.0000 H       1  UNL1        0.0236
     61 H           4.8544    2.6193    0.0000 H       1  UNL1        0.0236
     62 H           5.5622    0.5959    0.0000 H       1  UNL1        0.0563
     63 H           4.7652    0.5990    0.0000 H       1  UNL1        0.0563
     64 H           4.4539   -1.8769    0.0000 H       1  UNL1        0.0290
     65 H           4.8477   -2.5712    0.0000 H       1  UNL1        0.0290
     66 H           6.5386   -2.8451    0.0000 H       1  UNL1        0.0597
     67 H           8.3019    1.9795    0.0000 H       1  UNL1        0.2102
     68 H           3.9815    4.0756    0.0000 H       1  UNL1        0.0746
     69 H           4.7009    3.6623    0.0000 H       1  UNL1        0.0746
     70 H           3.7582   -0.0621    0.0000 H       1  UNL1        0.2094
     71 H           6.3367    5.6070    0.0000 H       1  UNL1        0.0689
     72 H           5.1350   -3.4161    0.0000 H       1  UNL1        0.0937
     73 H           5.1350   -5.6561    0.0000 H       1  UNL1        0.0671
     74 H           3.7320   -5.8461    0.0000 H       1  UNL1        0.0648
     75 H           3.4030   -3.4161    0.0000 H       1  UNL1        0.0621
     76 H           2.8660   -4.7261    0.0000 H       1  UNL1        0.0646
     77 H           6.0010   -6.1561    0.0000 H       1  UNL1        0.2101
     78 H           2.8469   -2.9992    0.0000 H       1  UNL1        0.0255
     79 H           2.0000   -3.2261    0.0000 H       1  UNL1        0.0255
     80 H           2.2269   -4.0731    0.0000 H       1  UNL1        0.0255
     81 H           3.7320   -6.8461    0.0000 H       1  UNL1        0.2100
     82 H           2.0000   -5.2261    0.0000 H       1  UNL1        0.2100
@<TRIPOS>BOND
     1    10     1    1
     2     1    67    1
     3     2    26    1
     4     2    70    1
     5    28     3    1
     6     3    32    1
     7     4    30    1
     8     4    33    1
     9     5    32    1
    10     5    36    1
    11     6    33    2
    12    34     7    1
    13     7    77    1
    14    35     8    1
    15     8    81    1
    16    37     9    1
    17     9    82    1
    18    10    11    1
    19    10    13    1
    20    10    20    1
    21    11    12    1
    22    11    19    1
    23    11    39    1
    24    12    14    1
    25    12    16    1
    26    12    40    1
    27    13    17    1
    28    13    18    1
    29    13    25    1
    30    14    15    1
    31    14    23    1
    32    14    26    1
    33    15    21    1
    34    15    24    1
    35    15    41    1
    36    16    17    1
    37    16    42    1
    38    16    43    1
    39    17    44    1
    40    17    45    1
    41    18    22    1
    42    18    29    1
    43    18    46    1
    44    19    21    1
    45    19    47    1
    46    19    48    1
    47    20    22    1
    48    20    49    1
    49    20    50    1
    50    21    51    1
    51    21    52    1
    52    22    53    1
    53    22    54    1
    54    23    27    1
    55    23    55    1
    56    23    56    1
    57    24    28    1
    58    24    57    1
    59    24    58    1
    60    25    59    1
    61    25    60    1
    62    25    61    1
    63    26    62    1
    64    26    63    1
    65    27    28    1
    66    27    64    1
    67    27    65    1
    68    28    66    1
    69    29    30    1
    70    29    31    2
    71    30    68    1
    72    30    69    1
    73    31    33    1
    74    31    71    1
    75    32    34    1
    76    32    72    1
    77    34    35    1
    78    34    73    1
    79    35    37    1
    80    35    74    1
    81    36    37    1
    82    36    38    1
    83    36    75    1
    84    37    76    1
    85    38    78    1
    86    38    79    1
    87    38    80    1
