@<TRIPOS>MOLECULE
IMPHY009954
 15 15 0 0 0
SMALL
GASTEIGER

@<TRIPOS>ATOM
      1 I           2.0000   -0.0600    0.0000 I       1  UNL1       -0.0430
      2 O           4.5981    1.4400    0.0000 O.3     1  UNL1       -0.4771
      3 O           2.8660    1.4400    0.0000 O.2     1  UNL1       -0.2451
      4 C           3.7320   -0.0600    0.0000 C.ar    1  UNL1        0.0719
      5 C           2.8660   -0.5600    0.0000 C.ar    1  UNL1        0.0273
      6 C           4.5981   -0.5600    0.0000 C.ar    1  UNL1       -0.0468
      7 C           2.8660   -1.5600    0.0000 C.ar    1  UNL1       -0.0478
      8 C           4.5981   -1.5600    0.0000 C.ar    1  UNL1       -0.0609
      9 C           3.7320   -2.0600    0.0000 C.ar    1  UNL1       -0.0607
     10 C           3.7320    0.9400    0.0000 C.2     1  UNL1        0.3378
     11 H           5.1350   -0.2500    0.0000 H       1  UNL1        0.0626
     12 H           2.3291   -1.8700    0.0000 H       1  UNL1        0.0628
     13 H           5.1350   -1.8700    0.0000 H       1  UNL1        0.0618
     14 H           3.7320   -2.6800    0.0000 H       1  UNL1        0.0618
     15 H           4.5981    2.0600    0.0000 H       1  UNL1        0.2954
@<TRIPOS>BOND
     1     1     5    1
     2     2    10    1
     3     2    15    1
     4     3    10    2
     5     4     5   ar
     6     4     6   ar
     7     4    10    1
     8     5     7   ar
     9     6     8   ar
    10     6    11    1
    11     7     9   ar
    12     7    12    1
    13     8     9   ar
    14     8    13    1
    15     9    14    1
