@<TRIPOS>MOLECULE
IMPHY016103
 57 56 0 0 0
SMALL
GASTEIGER

@<TRIPOS>ATOM
      1 C          10.3312    0.4400    0.0000 C.3     1  UNL1       -0.0531
      2 C          11.1972   -0.0600    0.0000 C.3     1  UNL1       -0.0531
      3 C           9.4651   -0.0600    0.0000 C.3     1  UNL1       -0.0531
      4 C          12.0632    0.4400    0.0000 C.3     1  UNL1       -0.0531
      5 C           8.5991    0.4400    0.0000 C.3     1  UNL1       -0.0531
      6 C          12.9292   -0.0600    0.0000 C.3     1  UNL1       -0.0531
      7 C           7.7331   -0.0600    0.0000 C.3     1  UNL1       -0.0531
      8 C          13.7953    0.4400    0.0000 C.3     1  UNL1       -0.0531
      9 C           6.8671    0.4400    0.0000 C.3     1  UNL1       -0.0530
     10 C          14.6613   -0.0600    0.0000 C.3     1  UNL1       -0.0531
     11 C           6.0010   -0.0600    0.0000 C.3     1  UNL1       -0.0528
     12 C          15.5273    0.4400    0.0000 C.3     1  UNL1       -0.0533
     13 C           5.1350    0.4400    0.0000 C.3     1  UNL1       -0.0496
     14 C          16.3933   -0.0600    0.0000 C.3     1  UNL1       -0.0559
     15 C           4.2690   -0.0600    0.0000 C.3     1  UNL1       -0.0348
     16 C          17.2594    0.4400    0.0000 C.3     1  UNL1       -0.0653
     17 C           3.4030    0.4400    0.0000 C.2     1  UNL1       -0.0882
     18 C           2.5369   -0.0600    0.0000 C.2     1  UNL1       -0.0910
     19 C           2.5369   -1.0600    0.0000 C.3     1  UNL1       -0.0468
     20 H          10.7297    0.9149    0.0000 H       1  UNL1        0.0265
     21 H           9.9326    0.9149    0.0000 H       1  UNL1        0.0265
     22 H          10.7987   -0.5349    0.0000 H       1  UNL1        0.0265
     23 H          11.5957   -0.5349    0.0000 H       1  UNL1        0.0265
     24 H           9.0666   -0.5349    0.0000 H       1  UNL1        0.0265
     25 H           9.8637   -0.5349    0.0000 H       1  UNL1        0.0265
     26 H          12.4617    0.9149    0.0000 H       1  UNL1        0.0265
     27 H          11.6647    0.9149    0.0000 H       1  UNL1        0.0265
     28 H           8.9976    0.9149    0.0000 H       1  UNL1        0.0265
     29 H           8.2006    0.9149    0.0000 H       1  UNL1        0.0265
     30 H          12.5307   -0.5349    0.0000 H       1  UNL1        0.0265
     31 H          13.3278   -0.5349    0.0000 H       1  UNL1        0.0265
     32 H           7.3346   -0.5349    0.0000 H       1  UNL1        0.0265
     33 H           8.1316   -0.5349    0.0000 H       1  UNL1        0.0265
     34 H          14.1938    0.9149    0.0000 H       1  UNL1        0.0265
     35 H          13.3967    0.9149    0.0000 H       1  UNL1        0.0265
     36 H           7.2656    0.9149    0.0000 H       1  UNL1        0.0265
     37 H           6.4685    0.9149    0.0000 H       1  UNL1        0.0265
     38 H          14.2628   -0.5349    0.0000 H       1  UNL1        0.0265
     39 H          15.0598   -0.5349    0.0000 H       1  UNL1        0.0265
     40 H           5.6025   -0.5349    0.0000 H       1  UNL1        0.0265
     41 H           6.3996   -0.5349    0.0000 H       1  UNL1        0.0265
     42 H          15.9258    0.9149    0.0000 H       1  UNL1        0.0265
     43 H          15.1288    0.9149    0.0000 H       1  UNL1        0.0265
     44 H           5.5335    0.9149    0.0000 H       1  UNL1        0.0268
     45 H           4.7365    0.9149    0.0000 H       1  UNL1        0.0268
     46 H          15.9948   -0.5349    0.0000 H       1  UNL1        0.0263
     47 H          16.7919   -0.5349    0.0000 H       1  UNL1        0.0263
     48 H           3.8705   -0.5349    0.0000 H       1  UNL1        0.0307
     49 H           4.6675   -0.5349    0.0000 H       1  UNL1        0.0307
     50 H          17.5694   -0.0969    0.0000 H       1  UNL1        0.0230
     51 H          17.7963    0.7500    0.0000 H       1  UNL1        0.0230
     52 H          16.9494    0.9769    0.0000 H       1  UNL1        0.0230
     53 H           3.4030    1.0600    0.0000 H       1  UNL1        0.0569
     54 H           2.0000    0.2500    0.0000 H       1  UNL1        0.0566
     55 H           1.9169   -1.0600    0.0000 H       1  UNL1        0.0272
     56 H           2.5369   -1.6800    0.0000 H       1  UNL1        0.0272
     57 H           3.1569   -1.0600    0.0000 H       1  UNL1        0.0272
@<TRIPOS>BOND
     1     1     2    1
     2     1     3    1
     3     1    20    1
     4     1    21    1
     5     2     4    1
     6     2    22    1
     7     2    23    1
     8     3     5    1
     9     3    24    1
    10     3    25    1
    11     4     6    1
    12     4    26    1
    13     4    27    1
    14     5     7    1
    15     5    28    1
    16     5    29    1
    17     6     8    1
    18     6    30    1
    19     6    31    1
    20     7     9    1
    21     7    32    1
    22     7    33    1
    23     8    10    1
    24     8    34    1
    25     8    35    1
    26     9    11    1
    27     9    36    1
    28     9    37    1
    29    10    12    1
    30    10    38    1
    31    10    39    1
    32    11    13    1
    33    11    40    1
    34    11    41    1
    35    12    14    1
    36    12    42    1
    37    12    43    1
    38    13    15    1
    39    13    44    1
    40    13    45    1
    41    14    16    1
    42    14    46    1
    43    14    47    1
    44    15    17    1
    45    15    48    1
    46    15    49    1
    47    16    50    1
    48    16    51    1
    49    16    52    1
    50    17    18    2
    51    17    53    1
    52    18    19    1
    53    18    54    1
    54    19    55    1
    55    19    56    1
    56    19    57    1
