@<TRIPOS>MOLECULE
IMPHY000691
 72 75 0 0 0
SMALL
GASTEIGER

@<TRIPOS>ATOM
      1 O           9.3158    1.1187    0.0000 O.3     1  UNL1       -0.4641
      2 O           5.1350   -3.7177    0.0000 O.3     1  UNL1       -0.3313
      3 O           6.8671   -3.7177    0.0000 O.3     1  UNL1       -0.4572
      4 O           5.1350   -6.7177    0.0000 O.3     1  UNL1       -0.3864
      5 O           3.4030   -5.7177    0.0000 O.3     1  UNL1       -0.3865
      6 O           6.8671   -5.7177    0.0000 O.3     1  UNL1       -0.3829
      7 O           8.8546   -0.6026    0.0000 O.2     1  UNL1       -0.2505
      8 O           2.5369   -4.2177    0.0000 O.3     1  UNL1       -0.3924
      9 O           8.5991   -2.7177    0.0000 O.3     1  UNL1       -0.4914
     10 O           9.4124    5.0203    0.0000 O.3     1  UNL1       -0.4914
     11 O           7.9261    6.3586    0.0000 O.3     1  UNL1       -0.4915
     12 C           7.8376    1.7768    0.0000 C.3     1  UNL1        0.0105
     13 C           7.7331    0.7823    0.0000 C.3     1  UNL1        0.0666
     14 C           8.8158    1.9848    0.0000 C.3     1  UNL1        0.0963
     15 C           6.8671    0.2823    0.0000 C.3     1  UNL1       -0.0143
     16 C           7.0945    2.4460    0.0000 C.3     1  UNL1       -0.0209
     17 C           5.1350   -5.7177    0.0000 C.3     1  UNL1        0.1152
     18 C           4.2690   -5.2177    0.0000 C.3     1  UNL1        0.1120
     19 C           6.0010   -5.2177    0.0000 C.3     1  UNL1        0.1454
     20 C           4.2690   -4.2177    0.0000 C.3     1  UNL1        0.1140
     21 C           6.0010   -4.2177    0.0000 C.3     1  UNL1        0.2310
     22 C           8.6466    0.3756    0.0000 C.2     1  UNL1        0.3109
     23 C           6.8671   -0.7177    0.0000 C.ar    1  UNL1       -0.0429
     24 C           7.3024    3.4241    0.0000 C.ar    1  UNL1       -0.0433
     25 C           3.4030   -3.7177    0.0000 C.3     1  UNL1        0.0731
     26 C           6.8671   -2.7177    0.0000 C.ar    1  UNL1        0.1654
     27 C           7.7331   -1.2177    0.0000 C.ar    1  UNL1       -0.0131
     28 C           6.0010   -1.2177    0.0000 C.ar    1  UNL1       -0.0549
     29 C           7.7331   -2.2177    0.0000 C.ar    1  UNL1        0.1619
     30 C           6.0010   -2.2177    0.0000 C.ar    1  UNL1       -0.0159
     31 C           8.2534    3.7331    0.0000 C.ar    1  UNL1       -0.0131
     32 C           6.5592    4.0932    0.0000 C.ar    1  UNL1       -0.0549
     33 C           8.4614    4.7113    0.0000 C.ar    1  UNL1        0.1617
     34 C           6.7672    5.0714    0.0000 C.ar    1  UNL1       -0.0160
     35 C           7.7182    5.3804    0.0000 C.ar    1  UNL1        0.1615
     36 C           9.4651   -2.2177    0.0000 C.3     1  UNL1        0.0790
     37 C           9.6203    5.9984    0.0000 C.3     1  UNL1        0.0790
     38 C           7.1830    7.0277    0.0000 C.3     1  UNL1        0.0790
     39 H           7.2588    1.5546    0.0000 H       1  UNL1        0.0345
     40 H           7.2131    1.1200    0.0000 H       1  UNL1        0.0420
     41 H           9.3822    2.2369    0.0000 H       1  UNL1        0.0700
     42 H           8.6242    2.5744    0.0000 H       1  UNL1        0.0700
     43 H           6.6550    0.8649    0.0000 H       1  UNL1        0.0321
     44 H           6.2565    0.1747    0.0000 H       1  UNL1        0.0321
     45 H           6.5196    2.6782    0.0000 H       1  UNL1        0.0317
     46 H           6.7659    1.9202    0.0000 H       1  UNL1        0.0317
     47 H           5.6720   -6.0277    0.0000 H       1  UNL1        0.0648
     48 H           4.2690   -5.8377    0.0000 H       1  UNL1        0.0647
     49 H           6.5380   -4.9077    0.0000 H       1  UNL1        0.0683
     50 H           4.2690   -3.5977    0.0000 H       1  UNL1        0.0647
     51 H           6.0010   -3.5977    0.0000 H       1  UNL1        0.1084
     52 H           3.8015   -3.2427    0.0000 H       1  UNL1        0.0584
     53 H           3.0044   -3.2427    0.0000 H       1  UNL1        0.0584
     54 H           8.2700   -0.9077    0.0000 H       1  UNL1        0.0658
     55 H           5.4641   -0.9077    0.0000 H       1  UNL1        0.0621
     56 H           4.5981   -7.0277    0.0000 H       1  UNL1        0.2100
     57 H           3.4030   -6.3377    0.0000 H       1  UNL1        0.2100
     58 H           6.8671   -6.3377    0.0000 H       1  UNL1        0.2102
     59 H           5.4641   -2.5277    0.0000 H       1  UNL1        0.0655
     60 H           8.7142    3.3183    0.0000 H       1  UNL1        0.0658
     61 H           5.9696    3.9016    0.0000 H       1  UNL1        0.0621
     62 H           2.0000   -3.9077    0.0000 H       1  UNL1        0.2095
     63 H           6.3064    5.4862    0.0000 H       1  UNL1        0.0655
     64 H           9.7751   -2.7546    0.0000 H       1  UNL1        0.0660
     65 H          10.0021   -1.9077    0.0000 H       1  UNL1        0.0660
     66 H           9.1551   -1.6808    0.0000 H       1  UNL1        0.0660
     67 H          10.2268    5.8695    0.0000 H       1  UNL1        0.0660
     68 H           9.7492    6.6049    0.0000 H       1  UNL1        0.0660
     69 H           9.0139    6.1274    0.0000 H       1  UNL1        0.0660
     70 H           7.5978    7.4884    0.0000 H       1  UNL1        0.0660
     71 H           6.7222    7.4426    0.0000 H       1  UNL1        0.0660
     72 H           6.7681    6.5669    0.0000 H       1  UNL1        0.0660
@<TRIPOS>BOND
     1     1    14    1
     2     1    22    1
     3     2    20    1
     4     2    21    1
     5    21     3    1
     6     3    26    1
     7    17     4    1
     8     4    56    1
     9    18     5    1
    10     5    57    1
    11    19     6    1
    12     6    58    1
    13     7    22    2
    14     8    25    1
    15     8    62    1
    16     9    29    1
    17     9    36    1
    18    10    33    1
    19    10    37    1
    20    11    35    1
    21    11    38    1
    22    12    13    1
    23    12    14    1
    24    12    16    1
    25    12    39    1
    26    13    15    1
    27    13    22    1
    28    13    40    1
    29    14    41    1
    30    14    42    1
    31    15    23    1
    32    15    43    1
    33    15    44    1
    34    16    24    1
    35    16    45    1
    36    16    46    1
    37    17    18    1
    38    17    19    1
    39    17    47    1
    40    18    20    1
    41    18    48    1
    42    19    21    1
    43    19    49    1
    44    20    25    1
    45    20    50    1
    46    21    51    1
    47    23    27   ar
    48    23    28   ar
    49    24    31   ar
    50    24    32   ar
    51    25    52    1
    52    25    53    1
    53    26    29   ar
    54    26    30   ar
    55    27    29   ar
    56    27    54    1
    57    28    30   ar
    58    28    55    1
    59    30    59    1
    60    31    33   ar
    61    31    60    1
    62    32    34   ar
    63    32    61    1
    64    33    35   ar
    65    34    35   ar
    66    34    63    1
    67    36    64    1
    68    36    65    1
    69    36    66    1
    70    37    67    1
    71    37    68    1
    72    37    69    1
    73    38    70    1
    74    38    71    1
    75    38    72    1
