@<TRIPOS>MOLECULE
IMPHY012906
 47 48 0 0 0
SMALL
GASTEIGER

@<TRIPOS>ATOM
      1 O           3.7320    1.2327    0.0000 O.3     1  UNL1       -0.4585
      2 O           2.8660   -0.2673    0.0000 O.2     1  UNL1       -0.2511
      3 C           7.1962   -0.7673    0.0000 C.3     1  UNL1       -0.0108
      4 C           5.4641    0.2327    0.0000 C.3     1  UNL1        0.0022
      5 C           7.1962    0.2327    0.0000 C.2     1  UNL1       -0.0643
      6 C           6.3301   -1.2673    0.0000 C.3     1  UNL1       -0.0435
      7 C           6.3301    0.7327    0.0000 C.3     1  UNL1       -0.0245
      8 C           5.4641   -0.7673    0.0000 C.3     1  UNL1       -0.0455
      9 C           8.0901   -1.3020    0.0000 C.3     1  UNL1       -0.0436
     10 C           4.5981    0.7327    0.0000 C.3     1  UNL1        0.1110
     11 C           8.0901    0.7674    0.0000 C.2     1  UNL1       -0.0728
     12 C           8.9962   -0.7881    0.0000 C.3     1  UNL1       -0.0486
     13 C           7.1962   -1.7673    0.0000 C.3     1  UNL1       -0.0558
     14 C           8.9962    0.2535    0.0000 C.3     1  UNL1       -0.0317
     15 C           4.0981   -0.1333    0.0000 C.3     1  UNL1       -0.0248
     16 C           5.0981    1.5987    0.0000 C.3     1  UNL1       -0.0248
     17 C           8.0785    1.7673    0.0000 C.3     1  UNL1       -0.0435
     18 C           2.8660    0.7327    0.0000 C.2     1  UNL1        0.3045
     19 C           2.0000    1.2327    0.0000 C.3     1  UNL1        0.0333
     20 H           4.7280   -0.1923    0.0000 H       1  UNL1        0.0342
     21 H           5.9316   -1.7422    0.0000 H       1  UNL1        0.0274
     22 H           6.7287   -1.7422    0.0000 H       1  UNL1        0.0274
     23 H           6.7287    1.2076    0.0000 H       1  UNL1        0.0314
     24 H           5.9316    1.2076    0.0000 H       1  UNL1        0.0314
     25 H           4.8535   -0.6596    0.0000 H       1  UNL1        0.0270
     26 H           5.2520   -1.3499    0.0000 H       1  UNL1        0.0270
     27 H           7.6855   -1.7718    0.0000 H       1  UNL1        0.0274
     28 H           8.4837   -1.7810    0.0000 H       1  UNL1        0.0274
     29 H           9.2052   -1.3718    0.0000 H       1  UNL1        0.0269
     30 H           9.6070   -0.6820    0.0000 H       1  UNL1        0.0269
     31 H           6.5762   -1.7673    0.0000 H       1  UNL1        0.0238
     32 H           7.1962   -2.3873    0.0000 H       1  UNL1        0.0238
     33 H           7.8162   -1.7673    0.0000 H       1  UNL1        0.0238
     34 H           9.6070    0.1474    0.0000 H       1  UNL1        0.0310
     35 H           9.2052    0.8372    0.0000 H       1  UNL1        0.0310
     36 H           3.5611    0.1767    0.0000 H       1  UNL1        0.0268
     37 H           3.7881   -0.6703    0.0000 H       1  UNL1        0.0268
     38 H           4.6350   -0.4433    0.0000 H       1  UNL1        0.0268
     39 H           5.6350    1.2887    0.0000 H       1  UNL1        0.0268
     40 H           5.4081    2.1357    0.0000 H       1  UNL1        0.0268
     41 H           4.5611    1.9087    0.0000 H       1  UNL1        0.0268
     42 H           8.6985    1.7745    0.0000 H       1  UNL1        0.0274
     43 H           8.0714    2.3873    0.0000 H       1  UNL1        0.0274
     44 H           7.4586    1.7601    0.0000 H       1  UNL1        0.0274
     45 H           2.3100    1.7696    0.0000 H       1  UNL1        0.0342
     46 H           1.4631    1.5427    0.0000 H       1  UNL1        0.0342
     47 H           1.6900    0.6958    0.0000 H       1  UNL1        0.0342
@<TRIPOS>BOND
     1     1    10    1
     2     1    18    1
     3     2    18    2
     4     3     5    1
     5     3     6    1
     6     3     9    1
     7     3    13    1
     8     4     7    1
     9     4     8    1
    10     4    10    1
    11     4    20    1
    12     5     7    1
    13     5    11    2
    14     6     8    1
    15     6    21    1
    16     6    22    1
    17     7    23    1
    18     7    24    1
    19     8    25    1
    20     8    26    1
    21     9    12    1
    22     9    27    1
    23     9    28    1
    24    10    15    1
    25    10    16    1
    26    11    14    1
    27    11    17    1
    28    12    14    1
    29    12    29    1
    30    12    30    1
    31    13    31    1
    32    13    32    1
    33    13    33    1
    34    14    34    1
    35    14    35    1
    36    15    36    1
    37    15    37    1
    38    15    38    1
    39    16    39    1
    40    16    40    1
    41    16    41    1
    42    17    42    1
    43    17    43    1
    44    17    44    1
    45    18    19    1
    46    19    45    1
    47    19    46    1
    48    19    47    1
