@<TRIPOS>MOLECULE
IMPHY016196
 34 35 0 0 0
SMALL
GASTEIGER

@<TRIPOS>ATOM
      1 C           4.5981   -0.0000    0.0000 C.3     1  UNL1       -0.0356
      2 C           4.5981    1.0000    0.0000 C.3     1  UNL1       -0.0377
      3 C           5.4920   -0.5347    0.0000 C.3     1  UNL1       -0.0408
      4 C           3.7320    1.5000    0.0000 C.3     1  UNL1       -0.0474
      5 C           3.7320   -0.5000    0.0000 C.3     1  UNL1       -0.0495
      6 C           5.4920    1.5346    0.0000 C.3     1  UNL1       -0.0499
      7 C           2.8660    1.0000    0.0000 C.3     1  UNL1       -0.0436
      8 C           2.8660   -0.0000    0.0000 C.3     1  UNL1       -0.0502
      9 C           6.3981   -0.0208    0.0000 C.3     1  UNL1       -0.0502
     10 C           6.3981    1.0208    0.0000 C.3     1  UNL1       -0.0525
     11 C           5.4804   -1.5346    0.0000 C.3     1  UNL1       -0.0622
     12 C           2.0000    1.5000    0.0000 C.3     1  UNL1       -0.0624
     13 H           4.5933   -0.6200    0.0000 H       1  UNL1        0.0306
     14 H           4.5933    1.6200    0.0000 H       1  UNL1        0.0304
     15 H           6.0259   -0.8499    0.0000 H       1  UNL1        0.0301
     16 H           4.1306    1.9749    0.0000 H       1  UNL1        0.0271
     17 H           3.3335    1.9749    0.0000 H       1  UNL1        0.0271
     18 H           3.3335   -0.9750    0.0000 H       1  UNL1        0.0268
     19 H           4.1306   -0.9750    0.0000 H       1  UNL1        0.0268
     20 H           5.8856    2.0136    0.0000 H       1  UNL1        0.0268
     21 H           5.0874    2.0044    0.0000 H       1  UNL1        0.0268
     22 H           2.3291    0.6900    0.0000 H       1  UNL1        0.0298
     23 H           2.2554    0.1076    0.0000 H       1  UNL1        0.0268
     24 H           2.6540   -0.5826    0.0000 H       1  UNL1        0.0268
     25 H           6.6071   -0.6045    0.0000 H       1  UNL1        0.0268
     26 H           7.0089    0.0852    0.0000 H       1  UNL1        0.0268
     27 H           7.0089    0.9147    0.0000 H       1  UNL1        0.0265
     28 H           6.6071    1.6045    0.0000 H       1  UNL1        0.0265
     29 H           4.8605   -1.5275    0.0000 H       1  UNL1        0.0233
     30 H           5.4733   -2.1546    0.0000 H       1  UNL1        0.0233
     31 H           6.1004   -1.5418    0.0000 H       1  UNL1        0.0233
     32 H           2.3100    2.0369    0.0000 H       1  UNL1        0.0232
     33 H           1.4631    1.8100    0.0000 H       1  UNL1        0.0232
     34 H           1.6900    0.9630    0.0000 H       1  UNL1        0.0232
@<TRIPOS>BOND
     1     1     2    1
     2     1     3    1
     3     1     5    1
     4     1    13    1
     5     2     4    1
     6     2     6    1
     7     2    14    1
     8     3     9    1
     9     3    11    1
    10     3    15    1
    11     4     7    1
    12     4    16    1
    13     4    17    1
    14     5     8    1
    15     5    18    1
    16     5    19    1
    17     6    10    1
    18     6    20    1
    19     6    21    1
    20     7     8    1
    21     7    12    1
    22     7    22    1
    23     8    23    1
    24     8    24    1
    25     9    10    1
    26     9    25    1
    27     9    26    1
    28    10    27    1
    29    10    28    1
    30    11    29    1
    31    11    30    1
    32    11    31    1
    33    12    32    1
    34    12    33    1
    35    12    34    1
