@<TRIPOS>MOLECULE
IMPHY009408
 23 25 0 0 0
SMALL
GASTEIGER

@<TRIPOS>ATOM
      1 O           2.9061   -1.8020    0.0000 O.2     1  UNL1       -0.4627
      2 O           2.9176    1.2673    0.0000 O.2     1  UNL1       -0.2870
      3 C           4.6660    0.2327    0.0000 C.ar    1  UNL1       -0.0035
      4 C           3.8000   -0.2673    0.0000 C.ar    1  UNL1        0.0716
      5 C           5.5321   -0.2673    0.0000 C.ar    1  UNL1       -0.0170
      6 C           3.8000   -1.2673    0.0000 C.ar    1  UNL1        0.1390
      7 C           5.5321   -1.2673    0.0000 C.ar    1  UNL1       -0.0505
      8 C           4.6660   -1.7673    0.0000 C.ar    1  UNL1       -0.0181
      9 C           4.6500    1.2742    0.0000 C.ar    1  UNL1       -0.0532
     10 C           2.9061    0.2674    0.0000 C.ar    1  UNL1        0.1931
     11 C           6.4421    0.2395    0.0000 C.ar    1  UNL1       -0.0540
     12 C           5.5480    1.8020    0.0000 C.ar    1  UNL1       -0.0611
     13 C           6.4501    1.2812    0.0000 C.ar    1  UNL1       -0.0612
     14 C           2.0000   -0.2465    0.0000 C.ar    1  UNL1        0.0207
     15 C           2.0000   -1.2881    0.0000 C.ar    1  UNL1        0.0961
     16 H           6.0690   -1.5773    0.0000 H       1  UNL1        0.0625
     17 H           4.6660   -2.3873    0.0000 H       1  UNL1        0.0655
     18 H           4.1095    1.5780    0.0000 H       1  UNL1        0.0624
     19 H           6.9754   -0.0766    0.0000 H       1  UNL1        0.0624
     20 H           5.5456    2.4220    0.0000 H       1  UNL1        0.0618
     21 H           6.9882    1.5891    0.0000 H       1  UNL1        0.0618
     22 H           1.4643    0.0656    0.0000 H       1  UNL1        0.0687
     23 H           1.4643   -1.6002    0.0000 H       1  UNL1        0.1031
@<TRIPOS>BOND
     1     1     6   ar
     2     1    15   ar
     3     2    10    2
     4     3     4   ar
     5     3     5   ar
     6     3     9   ar
     7     4     6   ar
     8     4    10   ar
     9     5     7   ar
    10     5    11   ar
    11     6     8   ar
    12     7     8   ar
    13     7    16    1
    14     8    17    1
    15     9    12   ar
    16     9    18    1
    17    10    14   ar
    18    11    13   ar
    19    11    19    1
    20    12    13   ar
    21    12    20    1
    22    13    21    1
    23    14    15   ar
    24    14    22    1
    25    15    23    1
