@<TRIPOS>MOLECULE
IMPHY003552
 22 22 0 0 0
SMALL
GASTEIGER

@<TRIPOS>ATOM
      1 C           4.5981    0.5000    0.0000 C.ar    1  UNL1       -0.0404
      2 C           5.4641    0.0000    0.0000 C.ar    1  UNL1       -0.0470
      3 C           3.7320    0.0000    0.0000 C.ar    1  UNL1       -0.0224
      4 C           5.4641   -1.0000    0.0000 C.ar    1  UNL1       -0.0586
      5 C           4.5981    1.5000    0.0000 C.3     1  UNL1       -0.0389
      6 C           3.7320   -1.0000    0.0000 C.ar    1  UNL1       -0.0543
      7 C           6.3301    0.5000    0.0000 C.3     1  UNL1       -0.0394
      8 C           4.5981   -1.5000    0.0000 C.ar    1  UNL1       -0.0609
      9 C           2.8660    0.5000    0.0000 C.2     1  UNL1       -0.0614
     10 C           2.0000    0.0000    0.0000 C.2     1  UNL1       -0.0981
     11 H           6.0010   -1.3100    0.0000 H       1  UNL1        0.0620
     12 H           5.2181    1.5000    0.0000 H       1  UNL1        0.0278
     13 H           4.5981    2.1200    0.0000 H       1  UNL1        0.0278
     14 H           3.9781    1.5000    0.0000 H       1  UNL1        0.0278
     15 H           3.1951   -1.3100    0.0000 H       1  UNL1        0.0624
     16 H           6.6401   -0.0369    0.0000 H       1  UNL1        0.0278
     17 H           6.8671    0.8100    0.0000 H       1  UNL1        0.0278
     18 H           6.0201    1.0369    0.0000 H       1  UNL1        0.0278
     19 H           4.5981   -2.1200    0.0000 H       1  UNL1        0.0618
     20 H           2.8660    1.1200    0.0000 H       1  UNL1        0.0618
     21 H           1.4631    0.3100    0.0000 H       1  UNL1        0.0535
     22 H           2.0000   -0.6200    0.0000 H       1  UNL1        0.0535
@<TRIPOS>BOND
     1     1     2   ar
     2     1     3   ar
     3     1     5    1
     4     2     4   ar
     5     2     7    1
     6     3     6   ar
     7     3     9    1
     8     4     8   ar
     9     4    11    1
    10     5    12    1
    11     5    13    1
    12     5    14    1
    13     6     8   ar
    14     6    15    1
    15     7    16    1
    16     7    17    1
    17     7    18    1
    18     8    19    1
    19     9    10    2
    20     9    20    1
    21    10    21    1
    22    10    22    1
