@<TRIPOS>MOLECULE
IMPHY010595
 62 63 0 0 0
SMALL
GASTEIGER

@<TRIPOS>ATOM
      1 O           4.6802   -0.7312    0.0000 O.3     1  UNL1       -0.4561
      2 O           8.1756   -0.5298    0.0000 O.3     1  UNL1       -0.4580
      3 O           9.6710   -0.3516    0.0000 O.3     1  UNL1       -0.3734
      4 O          11.4218    1.0394    0.0000 O.3     1  UNL1       -0.3856
      5 O           9.5692    2.5560    0.0000 O.3     1  UNL1       -0.3765
      6 O           7.8184    1.1650    0.0000 O.2     1  UNL1       -0.2474
      7 O           3.0329   -1.2664    0.0000 O.2     1  UNL1       -0.2453
      8 N           5.9402   -2.9913    0.0000 N.3     1  UNL1       -0.2886
      9 C           5.9402   -1.9913    0.0000 C.3     1  UNL1        0.0723
     10 C           4.9892   -1.6822    0.0000 C.3     1  UNL1        0.1239
     11 C           4.4014   -2.4913    0.0000 C.3     1  UNL1       -0.0010
     12 C           4.9892   -3.3003    0.0000 C.3     1  UNL1        0.0033
     13 C           6.8865   -1.6865    0.0000 C.2     1  UNL1       -0.0148
     14 C           6.8865   -3.2960    0.0000 C.3     1  UNL1        0.0182
     15 C           7.4701   -2.4913    0.0000 C.2     1  UNL1       -0.0660
     16 C           7.1971   -0.7360    0.0000 C.3     1  UNL1        0.1153
     17 C           9.4648    0.6270    0.0000 C.3     1  UNL1        0.2164
     18 C          10.4433    0.8332    0.0000 C.3     1  UNL1        0.1020
     19 C           9.2586    1.6055    0.0000 C.3     1  UNL1        0.0974
     20 C           8.4863    0.4207    0.0000 C.2     1  UNL1        0.3450
     21 C           3.7020   -0.5233    0.0000 C.2     1  UNL1        0.3349
     22 C          10.7540    1.7837    0.0000 C.3     1  UNL1       -0.0330
     23 C          10.6495   -0.1453    0.0000 C.3     1  UNL1       -0.0330
     24 C           8.3081    1.9161    0.0000 C.3     1  UNL1       -0.0353
     25 C           3.3930    0.4278    0.0000 C.2     1  UNL1        0.0293
     26 C           4.0621    1.1709    0.0000 C.3     1  UNL1       -0.0333
     27 C           8.9014    3.3003    0.0000 C.3     1  UNL1        0.0369
     28 C           2.4149    0.6357    0.0000 C.2     1  UNL1       -0.0774
     29 C           2.1058    1.5868    0.0000 C.3     1  UNL1       -0.0461
     30 H           5.9414   -1.1413    0.0000 H       1  UNL1        0.0547
     31 H           4.3768   -1.5852    0.0000 H       1  UNL1        0.0753
     32 H           3.9406   -2.0764    0.0000 H       1  UNL1        0.0314
     33 H           3.9406   -2.9061    0.0000 H       1  UNL1        0.0314
     34 H           4.4522   -3.6103    0.0000 H       1  UNL1        0.0428
     35 H           5.2414   -3.8667    0.0000 H       1  UNL1        0.0428
     36 H           6.6354   -3.8629    0.0000 H       1  UNL1        0.0470
     37 H           7.4238   -3.6052    0.0000 H       1  UNL1        0.0470
     38 H           8.0901   -2.4913    0.0000 H       1  UNL1        0.0586
     39 H           7.1766   -0.1163    0.0000 H       1  UNL1        0.0746
     40 H           6.5833   -0.6487    0.0000 H       1  UNL1        0.0746
     41 H           9.8777    1.5719    0.0000 H       1  UNL1        0.0628
     42 H          10.0429   -0.2732    0.0000 H       1  UNL1        0.0258
     43 H          10.7774   -0.7520    0.0000 H       1  UNL1        0.0258
     44 H          11.2562   -0.0175    0.0000 H       1  UNL1        0.0258
     45 H          11.3433    1.5911    0.0000 H       1  UNL1        0.0258
     46 H          10.9466    2.3730    0.0000 H       1  UNL1        0.0258
     47 H          10.1646    1.9763    0.0000 H       1  UNL1        0.0258
     48 H           8.5007    2.5054    0.0000 H       1  UNL1        0.0256
     49 H           7.7187    2.1087    0.0000 H       1  UNL1        0.0256
     50 H           8.1154    1.3268    0.0000 H       1  UNL1        0.0256
     51 H           9.2096   -0.7656    0.0000 H       1  UNL1        0.2111
     52 H          11.8359    0.5779    0.0000 H       1  UNL1        0.2103
     53 H           9.3629    3.7143    0.0000 H       1  UNL1        0.0524
     54 H           8.4873    3.7617    0.0000 H       1  UNL1        0.0524
     55 H           8.4399    2.8862    0.0000 H       1  UNL1        0.0524
     56 H           4.5229    0.7561    0.0000 H       1  UNL1        0.0280
     57 H           4.4770    1.6317    0.0000 H       1  UNL1        0.0280
     58 H           3.6014    1.5858    0.0000 H       1  UNL1        0.0280
     59 H           2.0000    0.1749    0.0000 H       1  UNL1        0.0574
     60 H           2.6955    1.7783    0.0000 H       1  UNL1        0.0272
     61 H           1.9142    2.1764    0.0000 H       1  UNL1        0.0272
     62 H           1.5162    1.3952    0.0000 H       1  UNL1        0.0272
@<TRIPOS>BOND
     1    10     1    1
     2     1    21    1
     3     2    16    1
     4     2    20    1
     5    17     3    1
     6     3    51    1
     7     4    18    1
     8     4    52    1
     9    19     5    1
    10     5    27    1
    11     6    20    2
    12     7    21    2
    13     8     9    1
    14     8    12    1
    15     8    14    1
    16     9    10    1
    17     9    13    1
    18     9    30    1
    19    10    11    1
    20    10    31    1
    21    11    12    1
    22    11    32    1
    23    11    33    1
    24    12    34    1
    25    12    35    1
    26    13    15    2
    27    13    16    1
    28    14    15    1
    29    14    36    1
    30    14    37    1
    31    15    38    1
    32    16    39    1
    33    16    40    1
    34    17    18    1
    35    17    19    1
    36    17    20    1
    37    18    22    1
    38    18    23    1
    39    19    24    1
    40    19    41    1
    41    21    25    1
    42    22    45    1
    43    22    46    1
    44    22    47    1
    45    23    42    1
    46    23    43    1
    47    23    44    1
    48    24    48    1
    49    24    49    1
    50    24    50    1
    51    25    26    1
    52    25    28    2
    53    26    56    1
    54    26    57    1
    55    26    58    1
    56    27    53    1
    57    27    54    1
    58    27    55    1
    59    28    29    1
    60    28    59    1
    61    29    60    1
    62    29    61    1
    63    29    62    1
