@<TRIPOS>MOLECULE
IMPHY009998
 46 45 0 0 0
SMALL
GASTEIGER

@<TRIPOS>ATOM
      1 O           8.9282    0.4400    0.0000 O.3     1  UNL1       -0.4605
      2 O           9.7942   -1.0600    0.0000 O.2     1  UNL1       -0.2508
      3 C          12.3923    0.4400    0.0000 C.3     1  UNL1       -0.0528
      4 C          11.5263   -0.0600    0.0000 C.3     1  UNL1       -0.0430
      5 C          13.2583   -0.0600    0.0000 C.3     1  UNL1       -0.0559
      6 C          10.6603    0.4400    0.0000 C.3     1  UNL1        0.0449
      7 C           5.4641    0.4400    0.0000 C.3     1  UNL1       -0.0285
      8 C           4.5981   -0.0600    0.0000 C.3     1  UNL1       -0.0308
      9 C           6.3301   -0.0600    0.0000 C.2     1  UNL1       -0.0731
     10 C          14.1244    0.4400    0.0000 C.3     1  UNL1       -0.0653
     11 C           9.7942   -0.0600    0.0000 C.2     1  UNL1        0.3074
     12 C           7.1962    0.4400    0.0000 C.2     1  UNL1       -0.0480
     13 C           8.0622   -0.0600    0.0000 C.3     1  UNL1        0.1109
     14 C           3.7320    0.4400    0.0000 C.2     1  UNL1       -0.0850
     15 C           6.3301   -1.0600    0.0000 C.3     1  UNL1       -0.0437
     16 C           2.8660   -0.0600    0.0000 C.2     1  UNL1       -0.0796
     17 C           2.0000    0.4400    0.0000 C.3     1  UNL1       -0.0440
     18 C           2.8660   -1.0600    0.0000 C.3     1  UNL1       -0.0440
     19 H          12.7908    0.9149    0.0000 H       1  UNL1        0.0265
     20 H          11.9938    0.9149    0.0000 H       1  UNL1        0.0265
     21 H          11.1278   -0.5349    0.0000 H       1  UNL1        0.0270
     22 H          11.9248   -0.5349    0.0000 H       1  UNL1        0.0270
     23 H          12.8598   -0.5349    0.0000 H       1  UNL1        0.0263
     24 H          13.6569   -0.5349    0.0000 H       1  UNL1        0.0263
     25 H          11.0588    0.9149    0.0000 H       1  UNL1        0.0377
     26 H          10.2617    0.9149    0.0000 H       1  UNL1        0.0377
     27 H           5.8626    0.9149    0.0000 H       1  UNL1        0.0313
     28 H           5.0656    0.9149    0.0000 H       1  UNL1        0.0313
     29 H           4.1996   -0.5349    0.0000 H       1  UNL1        0.0310
     30 H           4.9966   -0.5349    0.0000 H       1  UNL1        0.0310
     31 H          14.4344   -0.0969    0.0000 H       1  UNL1        0.0230
     32 H          14.6613    0.7500    0.0000 H       1  UNL1        0.0230
     33 H          13.8144    0.9769    0.0000 H       1  UNL1        0.0230
     34 H           7.1962    1.0600    0.0000 H       1  UNL1        0.0605
     35 H           7.6636   -0.5349    0.0000 H       1  UNL1        0.0743
     36 H           8.4607   -0.5349    0.0000 H       1  UNL1        0.0743
     37 H           3.7320    1.0600    0.0000 H       1  UNL1        0.0572
     38 H           5.7101   -1.0600    0.0000 H       1  UNL1        0.0274
     39 H           6.3301   -1.6800    0.0000 H       1  UNL1        0.0274
     40 H           6.9501   -1.0600    0.0000 H       1  UNL1        0.0274
     41 H           2.2460   -1.0600    0.0000 H       1  UNL1        0.0274
     42 H           2.8660   -1.6800    0.0000 H       1  UNL1        0.0274
     43 H           3.4860   -1.0600    0.0000 H       1  UNL1        0.0274
     44 H           2.3100    0.9769    0.0000 H       1  UNL1        0.0274
     45 H           1.4631    0.7500    0.0000 H       1  UNL1        0.0274
     46 H           1.6900   -0.0969    0.0000 H       1  UNL1        0.0274
@<TRIPOS>BOND
     1     1    11    1
     2     1    13    1
     3     2    11    2
     4     3     4    1
     5     3     5    1
     6     3    19    1
     7     3    20    1
     8     4     6    1
     9     4    21    1
    10     4    22    1
    11     5    10    1
    12     5    23    1
    13     5    24    1
    14     6    11    1
    15     6    25    1
    16     6    26    1
    17     7     8    1
    18     7     9    1
    19     7    27    1
    20     7    28    1
    21     8    14    1
    22     8    29    1
    23     8    30    1
    24     9    12    2
    25     9    15    1
    26    10    31    1
    27    10    32    1
    28    10    33    1
    29    12    13    1
    30    12    34    1
    31    13    35    1
    32    13    36    1
    33    14    16    2
    34    14    37    1
    35    15    38    1
    36    15    39    1
    37    15    40    1
    38    16    17    1
    39    16    18    1
    40    17    44    1
    41    17    45    1
    42    17    46    1
    43    18    41    1
    44    18    42    1
    45    18    43    1
