@<TRIPOS>MOLECULE
IMPHY002178
 81 86 0 0 0
SMALL
GASTEIGER

@<TRIPOS>ATOM
      1 O          10.7634    2.4278    0.0000 O.3     1  UNL1       -0.3645
      2 C           6.3291   -0.1420    0.0000 C.3     1  UNL1       -0.0231
      3 C           8.1051   -0.1351    0.0000 C.3     1  UNL1       -0.0253
      4 C           6.3211   -1.1836    0.0000 C.3     1  UNL1       -0.0231
      5 C           7.2391    0.3649    0.0000 C.3     1  UNL1       -0.0294
      6 C           8.9712    0.3649    0.0000 C.3     1  UNL1       -0.0272
      7 C           8.9712    1.3649    0.0000 C.3     1  UNL1        0.0025
      8 C           5.3856   -1.7333    0.0000 C.3     1  UNL1       -0.0294
      9 C           4.4460   -1.1908    0.0000 C.3     1  UNL1       -0.0256
     10 C           9.8651    1.8996    0.0000 C.3     1  UNL1        0.0988
     11 C           8.1212   -1.1766    0.0000 C.3     1  UNL1       -0.0466
     12 C           7.2231   -1.7044    0.0000 C.3     1  UNL1       -0.0463
     13 C           7.2391    1.3649    0.0000 C.3     1  UNL1       -0.0486
     14 C           5.4023    0.4221    0.0000 C.3     1  UNL1       -0.0463
     15 C           8.1051    1.8649    0.0000 C.3     1  UNL1       -0.0444
     16 C          10.7712    1.3857    0.0000 C.3     1  UNL1        0.0887
     17 C           4.4544   -0.1058    0.0000 C.3     1  UNL1       -0.0466
     18 C           9.8651   -0.1698    0.0000 C.3     1  UNL1       -0.0467
     19 C           3.6464   -1.9146    0.0000 C.3     1  UNL1       -0.0330
     20 C           5.1587   -2.7877    0.0000 C.3     1  UNL1       -0.0489
     21 C          10.7712    0.3441    0.0000 C.3     1  UNL1       -0.0236
     22 C           6.3368    0.8580    0.0000 C.3     1  UNL1       -0.0588
     23 C           8.9712   -0.6351    0.0000 C.3     1  UNL1       -0.0590
     24 C           6.3134   -2.1835    0.0000 C.3     1  UNL1       -0.0588
     25 C           4.0859   -2.8995    0.0000 C.3     1  UNL1       -0.0492
     26 C           8.9712    2.3649    0.0000 C.3     1  UNL1       -0.0566
     27 C           3.5800   -0.6908    0.0000 C.3     1  UNL1       -0.0590
     28 C           9.8574    2.8995    0.0000 C.3     1  UNL1       -0.0328
     29 C           2.6678   -1.7084    0.0000 C.3     1  UNL1       -0.0434
     30 C           2.0000   -2.4527    0.0000 C.3     1  UNL1       -0.0624
     31 C           2.3572   -0.7578    0.0000 C.3     1  UNL1       -0.0624
     32 H           7.9752    0.7899    0.0000 H       1  UNL1        0.0312
     33 H           9.7105    0.7842    0.0000 H       1  UNL1        0.0312
     34 H           6.0746   -2.2311    0.0000 H       1  UNL1        0.0312
     35 H           8.3392   -1.7570    0.0000 H       1  UNL1        0.0271
     36 H           8.7303   -1.0611    0.0000 H       1  UNL1        0.0271
     37 H           6.8258   -2.1803    0.0000 H       1  UNL1        0.0271
     38 H           7.6241   -2.1773    0.0000 H       1  UNL1        0.0271
     39 H           7.0270    1.9475    0.0000 H       1  UNL1        0.0268
     40 H           6.6285    1.2572    0.0000 H       1  UNL1        0.0268
     41 H           5.8105    0.8888    0.0000 H       1  UNL1        0.0271
     42 H           5.0123    0.9042    0.0000 H       1  UNL1        0.0271
     43 H           8.5036    2.3398    0.0000 H       1  UNL1        0.0272
     44 H           7.7066    2.3398    0.0000 H       1  UNL1        0.0272
     45 H          11.6211    1.3889    0.0000 H       1  UNL1        0.0625
     46 H           4.2498    0.4795    0.0000 H       1  UNL1        0.0271
     47 H           3.8427   -0.2072    0.0000 H       1  UNL1        0.0271
     48 H           9.4605   -0.6396    0.0000 H       1  UNL1        0.0269
     49 H          10.2587   -0.6488    0.0000 H       1  UNL1        0.0269
     50 H           3.2568   -2.3969    0.0000 H       1  UNL1        0.0309
     51 H           5.1578   -3.4077    0.0000 H       1  UNL1        0.0268
     52 H           5.7751   -2.8537    0.0000 H       1  UNL1        0.0268
     53 H          10.9802   -0.2396    0.0000 H       1  UNL1        0.0291
     54 H          11.3820    0.4502    0.0000 H       1  UNL1        0.0291
     55 H           6.9568    0.8532    0.0000 H       1  UNL1        0.0235
     56 H           6.3416    1.4780    0.0000 H       1  UNL1        0.0235
     57 H           5.7168    0.8628    0.0000 H       1  UNL1        0.0235
     58 H           8.6611   -1.1720    0.0000 H       1  UNL1        0.0235
     59 H           9.5081   -0.9451    0.0000 H       1  UNL1        0.0235
     60 H           9.2812   -0.0982    0.0000 H       1  UNL1        0.0235
     61 H           5.6934   -2.1788    0.0000 H       1  UNL1        0.0235
     62 H           6.3086   -2.8035    0.0000 H       1  UNL1        0.0235
     63 H           6.9333   -2.1883    0.0000 H       1  UNL1        0.0235
     64 H           3.4963   -3.0913    0.0000 H       1  UNL1        0.0268
     65 H           4.2146   -3.5060    0.0000 H       1  UNL1        0.0268
     66 H           9.5912    2.3649    0.0000 H       1  UNL1        0.0236
     67 H           8.9712    2.9849    0.0000 H       1  UNL1        0.0236
     68 H           8.3512    2.3649    0.0000 H       1  UNL1        0.0236
     69 H           3.8900   -0.1539    0.0000 H       1  UNL1        0.0235
     70 H           3.0430   -0.3808    0.0000 H       1  UNL1        0.0235
     71 H           3.2700   -1.2277    0.0000 H       1  UNL1        0.0235
     72 H          10.4774    2.9043    0.0000 H       1  UNL1        0.0258
     73 H           9.8526    3.5195    0.0000 H       1  UNL1        0.0258
     74 H           9.2374    2.8947    0.0000 H       1  UNL1        0.0258
     75 H           2.0612   -1.5805    0.0000 H       1  UNL1        0.0298
     76 H           2.9465   -0.5652    0.0000 H       1  UNL1        0.0232
     77 H           1.5385   -2.0386    0.0000 H       1  UNL1        0.0232
     78 H           1.5859   -2.9141    0.0000 H       1  UNL1        0.0232
     79 H           2.1646   -0.1685    0.0000 H       1  UNL1        0.0232
     80 H           2.4615   -2.8667    0.0000 H       1  UNL1        0.0232
     81 H           1.7679   -0.9504    0.0000 H       1  UNL1        0.0232
@<TRIPOS>BOND
     1     1    10    1
     2     1    16    1
     3     2     4    1
     4     2     5    1
     5     2    14    1
     6     2    22    1
     7     3     5    1
     8     3     6    1
     9     3    11    1
    10     3    23    1
    11     4     8    1
    12     4    12    1
    13     4    24    1
    14     5    13    1
    15     5    32    1
    16     6     7    1
    17     6    18    1
    18     6    33    1
    19     7    10    1
    20     7    15    1
    21     7    26    1
    22     8     9    1
    23     8    20    1
    24     8    34    1
    25     9    17    1
    26     9    19    1
    27     9    27    1
    28    10    16    1
    29    10    28    1
    30    11    12    1
    31    11    35    1
    32    11    36    1
    33    12    37    1
    34    12    38    1
    35    13    15    1
    36    13    39    1
    37    13    40    1
    38    14    17    1
    39    14    41    1
    40    14    42    1
    41    15    43    1
    42    15    44    1
    43    16    21    1
    44    16    45    1
    45    17    46    1
    46    17    47    1
    47    18    21    1
    48    18    48    1
    49    18    49    1
    50    19    25    1
    51    19    29    1
    52    19    50    1
    53    20    25    1
    54    20    51    1
    55    20    52    1
    56    21    53    1
    57    21    54    1
    58    22    55    1
    59    22    56    1
    60    22    57    1
    61    23    58    1
    62    23    59    1
    63    23    60    1
    64    24    61    1
    65    24    62    1
    66    24    63    1
    67    25    64    1
    68    25    65    1
    69    26    66    1
    70    26    67    1
    71    26    68    1
    72    27    69    1
    73    27    70    1
    74    27    71    1
    75    28    72    1
    76    28    73    1
    77    28    74    1
    78    29    30    1
    79    29    31    1
    80    29    75    1
    81    30    77    1
    82    30    78    1
    83    30    80    1
    84    31    76    1
    85    31    79    1
    86    31    81    1
