@<TRIPOS>MOLECULE
IMPHY017751
 17 17 0 0 0
SMALL
GASTEIGER

@<TRIPOS>ATOM
      1 N           3.7320   -1.0000    0.0000 N.ar    1  UNL1       -0.2571
      2 C           2.8660   -0.5000    0.0000 C.ar    1  UNL1        0.0385
      3 C           4.5981   -0.5000    0.0000 C.ar    1  UNL1        0.0385
      4 C           2.8660    0.5000    0.0000 C.ar    1  UNL1       -0.0406
      5 C           4.5981    0.5000    0.0000 C.ar    1  UNL1       -0.0406
      6 C           3.7320    1.0000    0.0000 C.ar    1  UNL1       -0.0584
      7 C           2.0000   -1.0000    0.0000 C.3     1  UNL1       -0.0224
      8 C           5.4641   -1.0000    0.0000 C.3     1  UNL1       -0.0224
      9 H           2.3291    0.8100    0.0000 H       1  UNL1        0.0635
     10 H           5.1350    0.8100    0.0000 H       1  UNL1        0.0635
     11 H           3.7320    1.6200    0.0000 H       1  UNL1        0.0619
     12 H           1.6900   -0.4631    0.0000 H       1  UNL1        0.0292
     13 H           1.4631   -1.3100    0.0000 H       1  UNL1        0.0292
     14 H           2.3100   -1.5369    0.0000 H       1  UNL1        0.0292
     15 H           5.1541   -1.5369    0.0000 H       1  UNL1        0.0292
     16 H           6.0010   -1.3100    0.0000 H       1  UNL1        0.0292
     17 H           5.7741   -0.4631    0.0000 H       1  UNL1        0.0292
@<TRIPOS>BOND
     1     1     2   ar
     2     1     3   ar
     3     2     4   ar
     4     2     7    1
     5     3     5   ar
     6     3     8    1
     7     4     6   ar
     8     4     9    1
     9     5     6   ar
    10     5    10    1
    11     6    11    1
    12     7    12    1
    13     7    13    1
    14     7    14    1
    15     8    15    1
    16     8    16    1
    17     8    17    1
