@<TRIPOS>MOLECULE
IMPHY009275
 43 48 0 0 0
SMALL
GASTEIGER

@<TRIPOS>ATOM
      1 O           6.7059    2.5612    0.0000 O.3     1  UNL1       -0.4563
      2 O           2.9562   -2.2569    0.0000 O.3     1  UNL1       -0.4489
      3 O           4.4081   -3.0952    0.0000 O.3     1  UNL1       -0.4524
      4 O           2.8718   -0.0105    0.0000 O.3     1  UNL1       -0.4907
      5 O           9.9183   -0.2089    0.0000 O.3     1  UNL1       -0.4526
      6 O           9.9183   -1.8184    0.0000 O.3     1  UNL1       -0.4525
      7 O           6.3740   -2.0136    0.0000 O.3     1  UNL1       -0.5060
      8 O           5.0493    3.2025    0.0000 O.2     1  UNL1       -0.2449
      9 C           6.3740   -0.0136    0.0000 C.ar    1  UNL1        0.0008
     10 C           6.3740    0.9864    0.0000 C.ar    1  UNL1        0.0121
     11 C           5.5080   -0.5136    0.0000 C.ar    1  UNL1       -0.0025
     12 C           4.6419   -0.0136    0.0000 C.ar    1  UNL1        0.0291
     13 C           5.5080    1.4864    0.0000 C.ar    1  UNL1        0.0667
     14 C           7.2400   -0.5136    0.0000 C.ar    1  UNL1        0.0282
     15 C           4.6419    0.9864    0.0000 C.ar    1  UNL1       -0.0360
     16 C           7.1110    1.6535    0.0000 C.3     1  UNL1        0.1192
     17 C           3.7319   -0.5205    0.0000 C.ar    1  UNL1        0.1730
     18 C           5.5240   -1.5551    0.0000 C.ar    1  UNL1       -0.0076
     19 C           3.7239   -1.5621    0.0000 C.ar    1  UNL1        0.2081
     20 C           4.6260   -2.0829    0.0000 C.ar    1  UNL1        0.1705
     21 C           5.7172    2.4582    0.0000 C.2     1  UNL1        0.3399
     22 C           8.1060   -0.0136    0.0000 C.ar    1  UNL1       -0.0049
     23 C           7.2400   -1.5136    0.0000 C.ar    1  UNL1        0.1283
     24 C           8.9721   -0.5136    0.0000 C.ar    1  UNL1        0.1670
     25 C           8.9721   -1.5136    0.0000 C.ar    1  UNL1        0.1697
     26 C           8.1060   -2.0136    0.0000 C.ar    1  UNL1        0.0259
     27 C           3.3782   -3.2025    0.0000 C.3     1  UNL1        0.2334
     28 C          10.5019   -1.0136    0.0000 C.3     1  UNL1        0.2332
     29 C           2.0000   -0.5004    0.0000 C.3     1  UNL1        0.0790
     30 H           4.1050    1.2964    0.0000 H       1  UNL1        0.0633
     31 H           7.4764    1.1526    0.0000 H       1  UNL1        0.0749
     32 H           7.6475    1.9642    0.0000 H       1  UNL1        0.0749
     33 H           6.0645   -1.8589    0.0000 H       1  UNL1        0.0662
     34 H           8.1060    0.6064    0.0000 H       1  UNL1        0.0663
     35 H           8.1060   -2.6336    0.0000 H       1  UNL1        0.0692
     36 H           2.7886   -3.3943    0.0000 H       1  UNL1        0.1166
     37 H           3.5069   -3.8090    0.0000 H       1  UNL1        0.1166
     38 H          10.9628   -1.4284    0.0000 H       1  UNL1        0.1166
     39 H          10.9628   -0.5989    0.0000 H       1  UNL1        0.1166
     40 H           6.3740   -2.6336    0.0000 H       1  UNL1        0.2922
     41 H           1.6962    0.0400    0.0000 H       1  UNL1        0.0660
     42 H           1.4595   -0.8042    0.0000 H       1  UNL1        0.0660
     43 H           2.3038   -1.0409    0.0000 H       1  UNL1        0.0660
@<TRIPOS>BOND
     1     1    16    1
     2     1    21    1
     3     2    19    1
     4     2    27    1
     5     3    20    1
     6     3    27    1
     7     4    17    1
     8     4    29    1
     9     5    24    1
    10     5    28    1
    11     6    25    1
    12     6    28    1
    13     7    23    1
    14     7    40    1
    15     8    21    2
    16     9    10   ar
    17     9    11   ar
    18     9    14    1
    19    10    13   ar
    20    10    16    1
    21    11    12   ar
    22    11    18   ar
    23    12    15   ar
    24    12    17   ar
    25    13    15   ar
    26    13    21    1
    27    14    22   ar
    28    14    23   ar
    29    15    30    1
    30    16    31    1
    31    16    32    1
    32    17    19   ar
    33    18    20   ar
    34    18    33    1
    35    19    20   ar
    36    22    24   ar
    37    22    34    1
    38    23    26   ar
    39    24    25   ar
    40    25    26   ar
    41    26    35    1
    42    27    36    1
    43    27    37    1
    44    28    38    1
    45    28    39    1
    46    29    41    1
    47    29    42    1
    48    29    43    1
