@<TRIPOS>MOLECULE
IMPHY009188
 65 71 0 0 0
SMALL
GASTEIGER

@<TRIPOS>ATOM
      1 O           5.4275   -1.7756    0.0000 O.3     1  UNL1       -0.3516
      2 O           3.3389    1.8951    0.0000 O.3     1  UNL1       -0.3687
      3 O           8.1221   -2.3172    0.0000 O.3     1  UNL1       -0.4539
      4 O           4.5896   -2.3034    0.0000 O.3     1  UNL1       -0.3836
      5 O           6.1435    2.0702    0.0000 O.3     1  UNL1       -0.4639
      6 O           2.8079   -1.2929    0.0000 O.2     1  UNL1       -0.2942
      7 O           7.2161   -3.8380    0.0000 O.2     1  UNL1       -0.2478
      8 O           6.0560    3.8380    0.0000 O.2     1  UNL1       -0.2508
      9 O          10.5529   -0.4109    0.0000 O.2     1  UNL1       -0.4706
     10 C           6.3380   -1.2688    0.0000 C.3     1  UNL1        0.1244
     11 C           5.4720   -0.7688    0.0000 C.3     1  UNL1        0.0370
     12 C           5.4720    0.2312    0.0000 C.3     1  UNL1       -0.0182
     13 C           7.2040   -0.7688    0.0000 C.3     1  UNL1        0.0419
     14 C           4.5780    0.7659    0.0000 C.3     1  UNL1        0.0472
     15 C           6.3220   -2.3103    0.0000 C.3     1  UNL1        0.1857
     16 C           3.6720    0.2520    0.0000 C.3     1  UNL1        0.0600
     17 C           6.3380    0.7312    0.0000 C.3     1  UNL1       -0.0481
     18 C           4.5780   -1.3034    0.0000 C.3     1  UNL1        0.1217
     19 C           7.2040    0.2312    0.0000 C.3     1  UNL1       -0.0409
     20 C           4.3680    1.7798    0.0000 C.3     1  UNL1        0.0792
     21 C           8.1140   -1.2756    0.0000 C.3     1  UNL1        0.1391
     22 C           6.1221   -1.8945    0.0000 C.3     1  UNL1       -0.0537
     23 C           2.9097    0.9528    0.0000 C.3     1  UNL1        0.0746
     24 C           3.6720   -0.7896    0.0000 C.2     1  UNL1        0.1686
     25 C           5.6374    0.9684    0.0000 C.3     1  UNL1        0.1014
     26 C           8.0701   -0.2688    0.0000 C.3     1  UNL1       -0.0531
     27 C           7.2200   -2.8380    0.0000 C.2     1  UNL1        0.3398
     28 C           4.6907    2.8090    0.0000 C.3     1  UNL1        0.0718
     29 C           8.9742   -0.7656    0.0000 C.ar    1  UNL1        0.0310
     30 C           2.0000    1.3681    0.0000 C.3     1  UNL1       -0.0354
     31 C           2.2336    0.2160    0.0000 C.3     1  UNL1       -0.0354
     32 C           5.5855    2.9557    0.0000 C.2     1  UNL1        0.3096
     33 C           9.0672    0.2300    0.0000 C.ar    1  UNL1       -0.0172
     34 C           9.8924   -1.1618    0.0000 C.ar    1  UNL1        0.0984
     35 C          10.0429    0.4492    0.0000 C.ar    1  UNL1        0.0921
     36 H           6.2081   -0.1938    0.0000 H       1  UNL1        0.0315
     37 H           5.8886   -3.0415    0.0000 H       1  UNL1        0.0743
     38 H           2.8937   -0.0897    0.0000 H       1  UNL1        0.0414
     39 H           6.7366    1.2062    0.0000 H       1  UNL1        0.0269
     40 H           5.9395    1.2062    0.0000 H       1  UNL1        0.0269
     41 H           4.0441   -1.6186    0.0000 H       1  UNL1        0.0679
     42 H           7.8146    0.1236    0.0000 H       1  UNL1        0.0273
     43 H           7.4161    0.8138    0.0000 H       1  UNL1        0.0273
     44 H           3.9038    2.4919    0.0000 H       1  UNL1        0.0608
     45 H           8.6539   -1.5804    0.0000 H       1  UNL1        0.0793
     46 H           5.5852   -2.2046    0.0000 H       1  UNL1        0.0237
     47 H           6.4322   -2.4314    0.0000 H       1  UNL1        0.0237
     48 H           6.6590   -1.5845    0.0000 H       1  UNL1        0.0237
     49 H           5.6265    0.3485    0.0000 H       1  UNL1        0.0704
     50 H           6.2419    0.8307    0.0000 H       1  UNL1        0.0704
     51 H           8.3801   -0.8057    0.0000 H       1  UNL1        0.0237
     52 H           8.6070    0.0412    0.0000 H       1  UNL1        0.0237
     53 H           7.7601    0.2682    0.0000 H       1  UNL1        0.0237
     54 H           4.6863    3.4290    0.0000 H       1  UNL1        0.0403
     55 H           4.0775    2.9006    0.0000 H       1  UNL1        0.0403
     56 H           2.2575    1.9321    0.0000 H       1  UNL1        0.0257
     57 H           1.4360    1.6256    0.0000 H       1  UNL1        0.0257
     58 H           1.7425    0.8041    0.0000 H       1  UNL1        0.0257
     59 H           1.7767    0.6352    0.0000 H       1  UNL1        0.0257
     60 H           1.8144   -0.2408    0.0000 H       1  UNL1        0.0257
     61 H           2.6904   -0.2032    0.0000 H       1  UNL1        0.0257
     62 H           4.0563   -2.6196    0.0000 H       1  UNL1        0.2104
     63 H           8.6017    0.6395    0.0000 H       1  UNL1        0.0653
     64 H          10.0283   -1.7667    0.0000 H       1  UNL1        0.1033
     65 H          10.2885    1.0185    0.0000 H       1  UNL1        0.1029
@<TRIPOS>BOND
     1    10     1    1
     2     1    15    1
     3     2    20    1
     4     2    23    1
     5     3    21    1
     6     3    27    1
     7    18     4    1
     8     4    62    1
     9     5    25    1
    10     5    32    1
    11     6    24    2
    12     7    27    2
    13     8    32    2
    14     9    34   ar
    15     9    35   ar
    16    10    11    1
    17    10    13    1
    18    10    15    1
    19    11    12    1
    20    11    18    1
    21    11    22    1
    22    12    14    1
    23    12    17    1
    24    12    36    1
    25    13    19    1
    26    13    21    1
    27    13    26    1
    28    14    16    1
    29    14    20    1
    30    14    25    1
    31    15    27    1
    32    15    37    1
    33    16    23    1
    34    16    24    1
    35    16    38    1
    36    17    19    1
    37    17    39    1
    38    17    40    1
    39    18    24    1
    40    18    41    1
    41    19    42    1
    42    19    43    1
    43    20    28    1
    44    20    44    1
    45    21    29    1
    46    21    45    1
    47    22    46    1
    48    22    47    1
    49    22    48    1
    50    23    30    1
    51    23    31    1
    52    25    49    1
    53    25    50    1
    54    26    51    1
    55    26    52    1
    56    26    53    1
    57    28    32    1
    58    28    54    1
    59    28    55    1
    60    29    33   ar
    61    29    34   ar
    62    30    56    1
    63    30    57    1
    64    30    58    1
    65    31    59    1
    66    31    60    1
    67    31    61    1
    68    33    35   ar
    69    33    63    1
    70    34    64    1
    71    35    65    1
