@<TRIPOS>MOLECULE
IMPHY000615
 50 56 0 0 0
SMALL
GASTEIGER

@<TRIPOS>ATOM
      1 O           5.1353    0.2473    0.0000 O.3     1  UNL1       -0.3582
      2 O           2.5088    1.7828    0.0000 O.3     1  UNL1       -0.3589
      3 O           5.1353    3.2481    0.0000 O.3     1  UNL1       -0.3589
      4 O           2.5369    2.7477    0.0000 O.3     1  UNL1       -0.3858
      5 O           3.0185   -3.6153    0.0000 O.3     1  UNL1       -0.4569
      6 O           4.7591   -4.2477    0.0000 O.2     1  UNL1       -0.2453
      7 C           4.2690    0.7477    0.0000 C.3     1  UNL1        0.1381
      8 C           3.4030    1.2477    0.0000 C.3     1  UNL1        0.1560
      9 C           5.1350    1.2477    0.0000 C.3     1  UNL1        0.1208
     10 C           4.2850   -0.2938    0.0000 C.3     1  UNL1        0.0094
     11 C           4.2690    2.7477    0.0000 C.3     1  UNL1        0.1294
     12 C           5.1350    2.2477    0.0000 C.3     1  UNL1        0.1201
     13 C           2.4930    0.7408    0.0000 C.3     1  UNL1        0.0946
     14 C           3.4030    2.2477    0.0000 C.3     1  UNL1        0.1210
     15 C           3.3870   -0.8216    0.0000 C.3     1  UNL1       -0.0053
     16 C           2.4849   -0.3008    0.0000 C.3     1  UNL1       -0.0164
     17 C           5.2370   -0.8144    0.0000 C.3     1  UNL1       -0.0400
     18 C           4.2690    3.7477    0.0000 C.3     1  UNL1       -0.0124
     19 C           5.2850   -0.2861    0.0000 C.3     1  UNL1       -0.0562
     20 C           3.3786   -1.9065    0.0000 C.2     1  UNL1       -0.0189
     21 C           5.2537   -1.8993    0.0000 C.3     1  UNL1       -0.0202
     22 C           4.3183   -2.4490    0.0000 C.2     1  UNL1        0.0393
     23 C           5.1350    4.2477    0.0000 C.3     1  UNL1       -0.0599
     24 C           3.4030    4.2477    0.0000 C.3     1  UNL1       -0.0599
     25 C           2.5790   -2.6303    0.0000 C.3     1  UNL1        0.1149
     26 C           4.0913   -3.5034    0.0000 C.2     1  UNL1        0.3355
     27 H           5.9850    1.2478    0.0000 H       1  UNL1        0.0653
     28 H           5.9850    2.2476    0.0000 H       1  UNL1        0.0653
     29 H           1.6430    0.7506    0.0000 H       1  UNL1        0.0627
     30 H           3.4030    2.8677    0.0000 H       1  UNL1        0.0654
     31 H           2.6492   -1.2437    0.0000 H       1  UNL1        0.0354
     32 H           1.8749   -0.1900    0.0000 H       1  UNL1        0.0297
     33 H           2.2714   -0.8828    0.0000 H       1  UNL1        0.0297
     34 H           5.8494   -0.9111    0.0000 H       1  UNL1        0.0275
     35 H           5.4370   -0.2276    0.0000 H       1  UNL1        0.0275
     36 H           3.7320    3.4377    0.0000 H       1  UNL1        0.0325
     37 H           5.2898   -0.9061    0.0000 H       1  UNL1        0.0236
     38 H           5.9050   -0.2813    0.0000 H       1  UNL1        0.0236
     39 H           5.2802    0.3339    0.0000 H       1  UNL1        0.0236
     40 H           2.0000    2.4377    0.0000 H       1  UNL1        0.2100
     41 H           5.4717   -2.4797    0.0000 H       1  UNL1        0.0316
     42 H           5.8628   -1.7838    0.0000 H       1  UNL1        0.0316
     43 H           5.4450    3.7108    0.0000 H       1  UNL1        0.0233
     44 H           5.6720    4.5577    0.0000 H       1  UNL1        0.0233
     45 H           4.8250    4.7846    0.0000 H       1  UNL1        0.0233
     46 H           3.7131    4.7846    0.0000 H       1  UNL1        0.0233
     47 H           2.8661    4.5578    0.0000 H       1  UNL1        0.0233
     48 H           3.0930    3.7108    0.0000 H       1  UNL1        0.0233
     49 H           2.2136   -2.1295    0.0000 H       1  UNL1        0.0746
     50 H           2.0425   -2.9411    0.0000 H       1  UNL1        0.0746
@<TRIPOS>BOND
     1     7     1    1
     2     1     9    1
     3     8     2    1
     4     2    13    1
     5     3    11    1
     6     3    12    1
     7    14     4    1
     8     4    40    1
     9     5    25    1
    10     5    26    1
    11     6    26    2
    12     7     8    1
    13     7     9    1
    14     7    10    1
    15     8    13    1
    16     8    14    1
    17     9    12    1
    18     9    27    1
    19    10    15    1
    20    10    17    1
    21    10    19    1
    22    11    12    1
    23    11    14    1
    24    11    18    1
    25    12    28    1
    26    13    16    1
    27    13    29    1
    28    14    30    1
    29    15    16    1
    30    15    20    1
    31    15    31    1
    32    16    32    1
    33    16    33    1
    34    17    21    1
    35    17    34    1
    36    17    35    1
    37    18    23    1
    38    18    24    1
    39    18    36    1
    40    19    37    1
    41    19    38    1
    42    19    39    1
    43    20    22    2
    44    20    25    1
    45    21    22    1
    46    21    41    1
    47    21    42    1
    48    22    26    1
    49    23    43    1
    50    23    44    1
    51    23    45    1
    52    24    46    1
    53    24    47    1
    54    24    48    1
    55    25    49    1
    56    25    50    1
