@<TRIPOS>MOLECULE
IMPHY001921
 67 69 0 0 0
SMALL
GASTEIGER

@<TRIPOS>ATOM
      1 O           8.5017    2.7516    0.0000 O.3     1  UNL1       -0.3858
      2 O           6.0010   -1.4298    0.0000 O.3     1  UNL1       -0.3484
      3 O           6.8167    4.1231    0.0000 O.3     1  UNL1       -0.3922
      4 O           4.2690   -1.4298    0.0000 O.3     1  UNL1       -0.3405
      5 O           6.0010   -3.4298    0.0000 O.3     1  UNL1       -0.3841
      6 O           4.2690   -4.4298    0.0000 O.3     1  UNL1       -0.3864
      7 O           2.5369   -3.4298    0.0000 O.3     1  UNL1       -0.3865
      8 O           2.5369   -0.4298    0.0000 O.3     1  UNL1       -0.3924
      9 C           7.7331    1.5702    0.0000 C.3     1  UNL1        0.0020
     10 C           6.8671    1.0702    0.0000 C.3     1  UNL1       -0.0277
     11 C           7.5239    2.5420    0.0000 C.3     1  UNL1        0.0946
     12 C           6.8671    0.0702    0.0000 C.3     1  UNL1       -0.0110
     13 C           8.5991    1.0702    0.0000 C.3     1  UNL1       -0.0444
     14 C           7.7331   -0.4298    0.0000 C.3     1  UNL1       -0.0335
     15 C           6.1300    1.7373    0.0000 C.3     1  UNL1       -0.0466
     16 C           6.5352    2.6451    0.0000 C.3     1  UNL1       -0.0210
     17 C           8.5991    0.0702    0.0000 C.3     1  UNL1       -0.0491
     18 C           8.5991    2.0702    0.0000 C.3     1  UNL1       -0.0566
     19 C           7.7331   -1.4298    0.0000 C.3     1  UNL1       -0.0436
     20 C           6.0010   -0.4298    0.0000 C.3     1  UNL1        0.0541
     21 C           7.6267    3.5367    0.0000 C.3     1  UNL1        0.0735
     22 C           8.5991   -1.9298    0.0000 C.3     1  UNL1       -0.0624
     23 C           6.8671   -1.9298    0.0000 C.3     1  UNL1       -0.0624
     24 C           5.1350   -1.9298    0.0000 C.3     1  UNL1        0.1879
     25 C           5.1350   -2.9298    0.0000 C.3     1  UNL1        0.1341
     26 C           4.2690   -3.4298    0.0000 C.3     1  UNL1        0.1141
     27 C           3.4030   -1.9298    0.0000 C.3     1  UNL1        0.1130
     28 C           3.4030   -2.9298    0.0000 C.3     1  UNL1        0.1119
     29 C           2.5369   -1.4298    0.0000 C.3     1  UNL1        0.0730
     30 H           6.0901    0.7255    0.0000 H       1  UNL1        0.0310
     31 H           6.8671   -0.5498    0.0000 H       1  UNL1        0.0329
     32 H           9.2097    0.9625    0.0000 H       1  UNL1        0.0272
     33 H           8.8112    1.6528    0.0000 H       1  UNL1        0.0272
     34 H           8.2700   -0.7398    0.0000 H       1  UNL1        0.0307
     35 H           5.5936    2.0480    0.0000 H       1  UNL1        0.0269
     36 H           5.7646    1.2364    0.0000 H       1  UNL1        0.0269
     37 H           6.6639    3.2516    0.0000 H       1  UNL1        0.0294
     38 H           5.9456    2.8368    0.0000 H       1  UNL1        0.0294
     39 H           8.8112   -0.5124    0.0000 H       1  UNL1        0.0268
     40 H           9.2097    0.1779    0.0000 H       1  UNL1        0.0268
     41 H           8.9091    1.5333    0.0000 H       1  UNL1        0.0236
     42 H           9.1360    2.3802    0.0000 H       1  UNL1        0.0236
     43 H           8.2891    2.6071    0.0000 H       1  UNL1        0.0236
     44 H           7.1962   -1.1198    0.0000 H       1  UNL1        0.0298
     45 H           5.7890    0.1528    0.0000 H       1  UNL1        0.0564
     46 H           5.3905   -0.5375    0.0000 H       1  UNL1        0.0564
     47 H           8.2230    3.3668    0.0000 H       1  UNL1        0.0586
     48 H           7.8975    4.0944    0.0000 H       1  UNL1        0.0586
     49 H           8.6922    3.3416    0.0000 H       1  UNL1        0.2103
     50 H           8.2891   -2.4667    0.0000 H       1  UNL1        0.0232
     51 H           9.1360   -2.2398    0.0000 H       1  UNL1        0.0232
     52 H           8.9091   -1.3929    0.0000 H       1  UNL1        0.0232
     53 H           6.5571   -1.3929    0.0000 H       1  UNL1        0.0232
     54 H           6.3301   -2.2398    0.0000 H       1  UNL1        0.0232
     55 H           7.1771   -2.4667    0.0000 H       1  UNL1        0.0232
     56 H           6.8804    4.7398    0.0000 H       1  UNL1        0.2095
     57 H           5.1350   -1.3098    0.0000 H       1  UNL1        0.0937
     58 H           5.1350   -3.5498    0.0000 H       1  UNL1        0.0671
     59 H           3.7320   -3.7398    0.0000 H       1  UNL1        0.0648
     60 H           3.4030   -1.3098    0.0000 H       1  UNL1        0.0647
     61 H           2.8660   -2.6198    0.0000 H       1  UNL1        0.0647
     62 H           6.5380   -3.1198    0.0000 H       1  UNL1        0.2101
     63 H           1.9264   -1.3222    0.0000 H       1  UNL1        0.0584
     64 H           2.3249   -2.0124    0.0000 H       1  UNL1        0.0584
     65 H           3.7320   -4.7398    0.0000 H       1  UNL1        0.2100
     66 H           2.0000   -3.1198    0.0000 H       1  UNL1        0.2100
     67 H           2.0000   -0.1198    0.0000 H       1  UNL1        0.2095
@<TRIPOS>BOND
     1    11     1    1
     2     1    49    1
     3     2    20    1
     4    24     2    1
     5     3    21    1
     6     3    56    1
     7     4    24    1
     8     4    27    1
     9    25     5    1
    10     5    62    1
    11    26     6    1
    12     6    65    1
    13    28     7    1
    14     7    66    1
    15     8    29    1
    16     8    67    1
    17     9    10    1
    18     9    11    1
    19     9    13    1
    20     9    18    1
    21    10    12    1
    22    10    15    1
    23    10    30    1
    24    11    16    1
    25    11    21    1
    26    12    14    1
    27    12    20    1
    28    12    31    1
    29    13    17    1
    30    13    32    1
    31    13    33    1
    32    14    17    1
    33    14    19    1
    34    14    34    1
    35    15    16    1
    36    15    35    1
    37    15    36    1
    38    16    37    1
    39    16    38    1
    40    17    39    1
    41    17    40    1
    42    18    41    1
    43    18    42    1
    44    18    43    1
    45    19    22    1
    46    19    23    1
    47    19    44    1
    48    20    45    1
    49    20    46    1
    50    21    47    1
    51    21    48    1
    52    22    50    1
    53    22    51    1
    54    22    52    1
    55    23    53    1
    56    23    54    1
    57    23    55    1
    58    24    25    1
    59    24    57    1
    60    25    26    1
    61    25    58    1
    62    26    28    1
    63    26    59    1
    64    27    28    1
    65    27    29    1
    66    27    60    1
    67    28    61    1
    68    29    63    1
    69    29    64    1
