@<TRIPOS>MOLECULE
IMPHY017411
 21 20 0 0 0
SMALL
GASTEIGER

@<TRIPOS>ATOM
      1 O           2.8660    0.4400    0.0000 O.3     1  UNL1       -0.4679
      2 O           3.7320   -1.0600    0.0000 O.2     1  UNL1       -0.2509
      3 C           5.4641   -0.0600    0.0000 C.3     1  UNL1       -0.0247
      4 C           4.5981    0.4400    0.0000 C.3     1  UNL1        0.0483
      5 C           6.3301    0.4400    0.0000 C.2     1  UNL1       -0.0877
      6 C           3.7320   -0.0600    0.0000 C.2     1  UNL1        0.3071
      7 C           7.1962   -0.0600    0.0000 C.2     1  UNL1       -0.0910
      8 C           8.0622    0.4400    0.0000 C.3     1  UNL1       -0.0468
      9 C           2.0000   -0.0600    0.0000 C.3     1  UNL1        0.0817
     10 H           5.0656   -0.5349    0.0000 H       1  UNL1        0.0312
     11 H           5.8626   -0.5349    0.0000 H       1  UNL1        0.0312
     12 H           4.9966    0.9149    0.0000 H       1  UNL1        0.0380
     13 H           4.1996    0.9149    0.0000 H       1  UNL1        0.0380
     14 H           6.3301    1.0600    0.0000 H       1  UNL1        0.0569
     15 H           7.1962   -0.6800    0.0000 H       1  UNL1        0.0566
     16 H           8.3722   -0.0969    0.0000 H       1  UNL1        0.0272
     17 H           8.5991    0.7500    0.0000 H       1  UNL1        0.0272
     18 H           7.7522    0.9769    0.0000 H       1  UNL1        0.0272
     19 H           1.6900    0.4769    0.0000 H       1  UNL1        0.0661
     20 H           1.4631   -0.3700    0.0000 H       1  UNL1        0.0661
     21 H           2.3100   -0.5969    0.0000 H       1  UNL1        0.0661
@<TRIPOS>BOND
     1     1     6    1
     2     1     9    1
     3     2     6    2
     4     3     4    1
     5     3     5    1
     6     3    10    1
     7     3    11    1
     8     4     6    1
     9     4    12    1
    10     4    13    1
    11     5     7    2
    12     5    14    1
    13     7     8    1
    14     7    15    1
    15     8    16    1
    16     8    17    1
    17     8    18    1
    18     9    19    1
    19     9    20    1
    20     9    21    1
