@<TRIPOS>MOLECULE
IMPHY015901
 21 20 0 0 0
SMALL
GASTEIGER

@<TRIPOS>ATOM
      1 O           3.7320    0.7500    0.0000 O.3     1  UNL1       -0.4606
      2 O           2.8660   -0.7500    0.0000 O.2     1  UNL1       -0.2512
      3 C           6.3301    0.2500    0.0000 C.2     1  UNL1       -0.0765
      4 C           5.4641    0.7500    0.0000 C.2     1  UNL1       -0.0483
      5 C           4.5981    0.2500    0.0000 C.3     1  UNL1        0.1109
      6 C           7.1962    0.7500    0.0000 C.3     1  UNL1       -0.0439
      7 C           6.3301   -0.7500    0.0000 C.3     1  UNL1       -0.0439
      8 C           2.8660    0.2500    0.0000 C.2     1  UNL1        0.3042
      9 C           2.0000    0.7500    0.0000 C.3     1  UNL1        0.0332
     10 H           5.4641    1.3700    0.0000 H       1  UNL1        0.0605
     11 H           4.1996   -0.2249    0.0000 H       1  UNL1        0.0743
     12 H           4.9966   -0.2249    0.0000 H       1  UNL1        0.0743
     13 H           7.5062    0.2131    0.0000 H       1  UNL1        0.0274
     14 H           7.7331    1.0600    0.0000 H       1  UNL1        0.0274
     15 H           6.8862    1.2869    0.0000 H       1  UNL1        0.0274
     16 H           5.7101   -0.7500    0.0000 H       1  UNL1        0.0274
     17 H           6.3301   -1.3700    0.0000 H       1  UNL1        0.0274
     18 H           6.9501   -0.7500    0.0000 H       1  UNL1        0.0274
     19 H           2.3100    1.2869    0.0000 H       1  UNL1        0.0342
     20 H           1.4631    1.0600    0.0000 H       1  UNL1        0.0342
     21 H           1.6900    0.2131    0.0000 H       1  UNL1        0.0342
@<TRIPOS>BOND
     1     1     5    1
     2     1     8    1
     3     2     8    2
     4     3     4    2
     5     3     6    1
     6     3     7    1
     7     4     5    1
     8     4    10    1
     9     5    11    1
    10     5    12    1
    11     6    13    1
    12     6    14    1
    13     6    15    1
    14     7    16    1
    15     7    17    1
    16     7    18    1
    17     8     9    1
    18     9    19    1
    19     9    20    1
    20     9    21    1
