@<TRIPOS>MOLECULE
IMPHY016537
 80 79 0 0 0
SMALL
GASTEIGER

@<TRIPOS>ATOM
      1 O          16.7224    0.2500    0.0000 O.3     1  UNL1       -0.4644
      2 O           7.1962   -0.2500    0.0000 O.3     1  UNL1       -0.4644
      3 O          15.8564   -1.2500    0.0000 O.2     1  UNL1       -0.2509
      4 O           8.0622    1.2500    0.0000 O.2     1  UNL1       -0.2509
      5 C          18.4545    0.2500    0.0000 C.3     1  UNL1       -0.0069
      6 C           5.4641   -0.2500    0.0000 C.3     1  UNL1       -0.0069
      7 C          19.3205   -0.2500    0.0000 C.3     1  UNL1       -0.0471
      8 C           4.5981    0.2500    0.0000 C.3     1  UNL1       -0.0471
      9 C          18.4545    1.2500    0.0000 C.3     1  UNL1       -0.0500
     10 C           5.4641   -1.2500    0.0000 C.3     1  UNL1       -0.0500
     11 C          20.1865    0.2500    0.0000 C.3     1  UNL1       -0.0529
     12 C           3.7320   -0.2500    0.0000 C.3     1  UNL1       -0.0529
     13 C          17.5885   -0.2500    0.0000 C.3     1  UNL1        0.0952
     14 C           6.3301    0.2500    0.0000 C.3     1  UNL1        0.0952
     15 C          12.3923   -0.2500    0.0000 C.3     1  UNL1       -0.0530
     16 C          11.5263    0.2500    0.0000 C.3     1  UNL1       -0.0530
     17 C          13.2583    0.2500    0.0000 C.3     1  UNL1       -0.0526
     18 C          10.6603   -0.2500    0.0000 C.3     1  UNL1       -0.0526
     19 C          14.1244   -0.2500    0.0000 C.3     1  UNL1       -0.0430
     20 C           9.7942    0.2500    0.0000 C.3     1  UNL1       -0.0430
     21 C          21.0526   -0.2500    0.0000 C.3     1  UNL1       -0.0559
     22 C           2.8660    0.2500    0.0000 C.3     1  UNL1       -0.0559
     23 C          14.9904    0.2500    0.0000 C.3     1  UNL1        0.0449
     24 C           8.9282   -0.2500    0.0000 C.3     1  UNL1        0.0449
     25 C          19.3205    1.7500    0.0000 C.3     1  UNL1       -0.0649
     26 C           4.5981   -1.7500    0.0000 C.3     1  UNL1       -0.0649
     27 C          15.8564   -0.2500    0.0000 C.2     1  UNL1        0.3071
     28 C           8.0622    0.2500    0.0000 C.2     1  UNL1        0.3071
     29 C          21.9186    0.2500    0.0000 C.3     1  UNL1       -0.0653
     30 C           2.0000   -0.2500    0.0000 C.3     1  UNL1       -0.0653
     31 H          18.4545   -0.3700    0.0000 H       1  UNL1        0.0333
     32 H           5.4641    0.3700    0.0000 H       1  UNL1        0.0333
     33 H          18.9220   -0.7249    0.0000 H       1  UNL1        0.0269
     34 H          19.7190   -0.7249    0.0000 H       1  UNL1        0.0269
     35 H           4.9966    0.7249    0.0000 H       1  UNL1        0.0269
     36 H           4.1996    0.7249    0.0000 H       1  UNL1        0.0269
     37 H          18.2424    1.8326    0.0000 H       1  UNL1        0.0266
     38 H          17.8439    1.1423    0.0000 H       1  UNL1        0.0266
     39 H           5.6762   -1.8326    0.0000 H       1  UNL1        0.0266
     40 H           6.0747   -1.1423    0.0000 H       1  UNL1        0.0266
     41 H          20.5851    0.7249    0.0000 H       1  UNL1        0.0265
     42 H          19.7880    0.7249    0.0000 H       1  UNL1        0.0265
     43 H           3.3335   -0.7249    0.0000 H       1  UNL1        0.0265
     44 H           4.1306   -0.7249    0.0000 H       1  UNL1        0.0265
     45 H          17.1899   -0.7249    0.0000 H       1  UNL1        0.0700
     46 H          17.9870   -0.7249    0.0000 H       1  UNL1        0.0700
     47 H           6.7287    0.7249    0.0000 H       1  UNL1        0.0700
     48 H           5.9316    0.7249    0.0000 H       1  UNL1        0.0700
     49 H          11.9938   -0.7249    0.0000 H       1  UNL1        0.0265
     50 H          12.7908   -0.7249    0.0000 H       1  UNL1        0.0265
     51 H          11.9248    0.7249    0.0000 H       1  UNL1        0.0265
     52 H          11.1278    0.7249    0.0000 H       1  UNL1        0.0265
     53 H          13.6569    0.7249    0.0000 H       1  UNL1        0.0265
     54 H          12.8598    0.7249    0.0000 H       1  UNL1        0.0265
     55 H          10.2617   -0.7249    0.0000 H       1  UNL1        0.0265
     56 H          11.0588   -0.7249    0.0000 H       1  UNL1        0.0265
     57 H          13.7258   -0.7249    0.0000 H       1  UNL1        0.0270
     58 H          14.5229   -0.7249    0.0000 H       1  UNL1        0.0270
     59 H          10.1928    0.7249    0.0000 H       1  UNL1        0.0270
     60 H           9.3957    0.7249    0.0000 H       1  UNL1        0.0270
     61 H          20.6540   -0.7249    0.0000 H       1  UNL1        0.0263
     62 H          21.4511   -0.7249    0.0000 H       1  UNL1        0.0263
     63 H           3.2646    0.7249    0.0000 H       1  UNL1        0.0263
     64 H           2.4675    0.7249    0.0000 H       1  UNL1        0.0263
     65 H          15.3889    0.7249    0.0000 H       1  UNL1        0.0377
     66 H          14.5919    0.7249    0.0000 H       1  UNL1        0.0377
     67 H           8.5297   -0.7249    0.0000 H       1  UNL1        0.0377
     68 H           9.3267   -0.7249    0.0000 H       1  UNL1        0.0377
     69 H          19.6305    1.2131    0.0000 H       1  UNL1        0.0230
     70 H          19.8574    2.0600    0.0000 H       1  UNL1        0.0230
     71 H          19.0105    2.2869    0.0000 H       1  UNL1        0.0230
     72 H           4.2881   -1.2131    0.0000 H       1  UNL1        0.0230
     73 H           4.0611   -2.0600    0.0000 H       1  UNL1        0.0230
     74 H           4.9081   -2.2869    0.0000 H       1  UNL1        0.0230
     75 H          22.2286   -0.2869    0.0000 H       1  UNL1        0.0230
     76 H          22.4555    0.5600    0.0000 H       1  UNL1        0.0230
     77 H          21.6086    0.7869    0.0000 H       1  UNL1        0.0230
     78 H           1.6900    0.2869    0.0000 H       1  UNL1        0.0230
     79 H           1.4631   -0.5600    0.0000 H       1  UNL1        0.0230
     80 H           2.3100   -0.7869    0.0000 H       1  UNL1        0.0230
@<TRIPOS>BOND
     1     1    13    1
     2     1    27    1
     3     2    14    1
     4     2    28    1
     5     3    27    2
     6     4    28    2
     7     5     7    1
     8     5     9    1
     9     5    13    1
    10     5    31    1
    11     6     8    1
    12     6    10    1
    13     6    14    1
    14     6    32    1
    15     7    11    1
    16     7    33    1
    17     7    34    1
    18     8    12    1
    19     8    35    1
    20     8    36    1
    21     9    25    1
    22     9    37    1
    23     9    38    1
    24    10    26    1
    25    10    39    1
    26    10    40    1
    27    11    21    1
    28    11    41    1
    29    11    42    1
    30    12    22    1
    31    12    43    1
    32    12    44    1
    33    13    45    1
    34    13    46    1
    35    14    47    1
    36    14    48    1
    37    15    16    1
    38    15    17    1
    39    15    49    1
    40    15    50    1
    41    16    18    1
    42    16    51    1
    43    16    52    1
    44    17    19    1
    45    17    53    1
    46    17    54    1
    47    18    20    1
    48    18    55    1
    49    18    56    1
    50    19    23    1
    51    19    57    1
    52    19    58    1
    53    20    24    1
    54    20    59    1
    55    20    60    1
    56    21    29    1
    57    21    61    1
    58    21    62    1
    59    22    30    1
    60    22    63    1
    61    22    64    1
    62    23    27    1
    63    23    65    1
    64    23    66    1
    65    24    28    1
    66    24    67    1
    67    24    68    1
    68    25    69    1
    69    25    70    1
    70    25    71    1
    71    26    72    1
    72    26    73    1
    73    26    74    1
    74    29    75    1
    75    29    76    1
    76    29    77    1
    77    30    78    1
    78    30    79    1
    79    30    80    1
