@<TRIPOS>MOLECULE
IMPHY002566
 157 165 0 0 0
SMALL
GASTEIGER

@<TRIPOS>ATOM
      1 O           6.8671   -4.3147    0.0000 O.3     1  UNL1       -0.3418
      2 O           5.0597   -3.2618    0.0000 O.3     1  UNL1       -0.3892
      3 O           8.6209    4.9648    0.0000 O.3     1  UNL1       -0.4318
      4 O           9.3112   -3.6230    0.0000 O.3     1  UNL1       -0.4802
      5 O           7.8180   -4.5005    0.0000 O.2     1  UNL1       -0.2503
      6 O           9.5042    3.4749    0.0000 O.2     1  UNL1       -0.2501
      7 O           5.1350   -4.3147    0.0000 O.3     1  UNL1       -0.3405
      8 O           9.4695    6.4747    0.0000 O.3     1  UNL1       -0.3368
      9 O           6.8671   -6.3147    0.0000 O.3     1  UNL1       -0.3841
     10 O           5.1350   -7.3147    0.0000 O.3     1  UNL1       -0.3864
     11 O          10.3644    3.9849    0.0000 O.3     1  UNL1       -0.3366
     12 O           3.4030   -6.3147    0.0000 O.3     1  UNL1       -0.3865
     13 O          12.0847    5.0048    0.0000 O.3     1  UNL1       -0.3864
     14 O           2.5369   -4.8147    0.0000 O.3     1  UNL1       -0.3924
     15 O          12.0616    7.0047    0.0000 O.3     1  UNL1       -0.3869
     16 O          12.0963    4.0049    0.0000 O.3     1  UNL1       -0.3431
     17 O          10.3875    1.9850    0.0000 O.3     1  UNL1       -0.3841
     18 O          12.1310    1.0051    0.0000 O.3     1  UNL1       -0.3864
     19 O          13.8514    2.0251    0.0000 O.3     1  UNL1       -0.3402
     20 O          14.7000    3.5350    0.0000 O.3     1  UNL1       -0.3461
     21 O          15.5949    1.0452    0.0000 O.3     1  UNL1       -0.3841
     22 O          17.3152    2.0651    0.0000 O.3     1  UNL1       -0.3864
     23 O          17.2921    4.0650    0.0000 O.3     1  UNL1       -0.3869
     24 C           7.7681    0.3856    0.0000 C.3     1  UNL1       -0.0194
     25 C           6.9040   -0.1178    0.0000 C.3     1  UNL1       -0.0256
     26 C           6.8920   -1.1593    0.0000 C.3     1  UNL1       -0.0221
     27 C           7.7643    1.3856    0.0000 C.3     1  UNL1       -0.0051
     28 C           7.7920   -1.6836    0.0000 C.3     1  UNL1       -0.0172
     29 C           8.6801   -0.1178    0.0000 C.3     1  UNL1       -0.0463
     30 C           6.8963    1.8822    0.0000 C.2     1  UNL1       -0.0629
     31 C           8.6921   -1.1593    0.0000 C.3     1  UNL1       -0.0481
     32 C           7.8046   -2.7685    0.0000 C.3     1  UNL1        0.0966
     33 C           6.8762    2.9236    0.0000 C.3     1  UNL1       -0.0031
     34 C           6.0361    0.3789    0.0000 C.3     1  UNL1       -0.0306
     35 C           5.9421   -1.6836    0.0000 C.3     1  UNL1       -0.0184
     36 C           8.6723    1.8959    0.0000 C.3     1  UNL1       -0.0424
     37 C           7.7722    3.4549    0.0000 C.3     1  UNL1        0.0744
     38 C           8.7522    0.5630    0.0000 C.3     1  UNL1       -0.0585
     39 C           8.6763    2.9375    0.0000 C.3     1  UNL1       -0.0359
     40 C           6.8671   -3.3147    0.0000 C.3     1  UNL1        0.1033
     41 C           6.0322    1.3789    0.0000 C.2     1  UNL1       -0.0836
     42 C           5.9295   -2.7685    0.0000 C.3     1  UNL1        0.0830
     43 C           6.0279   -0.6560    0.0000 C.3     1  UNL1       -0.0589
     44 C           8.7497    1.2157    0.0000 C.3     1  UNL1       -0.0553
     45 C           5.9223    3.4406    0.0000 C.3     1  UNL1       -0.0403
     46 C           7.7764    4.5399    0.0000 C.3     1  UNL1       -0.0362
     47 C           5.9014    4.5254    0.0000 C.3     1  UNL1       -0.0343
     48 C           6.8347    5.0787    0.0000 C.3     1  UNL1       -0.0468
     49 C           8.8046   -2.7608    0.0000 C.3     1  UNL1       -0.0466
     50 C           8.3113   -3.6307    0.0000 C.2     1  UNL1        0.3136
     51 C           8.6324    3.9648    0.0000 C.2     1  UNL1        0.3161
     52 C           5.3881    5.3836    0.0000 C.3     1  UNL1       -0.0598
     53 C           4.9015    4.5100    0.0000 C.3     1  UNL1       -0.0598
     54 C           6.0010   -4.8147    0.0000 C.3     1  UNL1        0.1884
     55 C           6.0010   -5.8147    0.0000 C.3     1  UNL1        0.1341
     56 C           9.4810    5.4748    0.0000 C.3     1  UNL1        0.2338
     57 C           5.1350   -6.3147    0.0000 C.3     1  UNL1        0.1141
     58 C           4.2690   -4.8147    0.0000 C.3     1  UNL1        0.1130
     59 C           4.2690   -5.8147    0.0000 C.3     1  UNL1        0.1119
     60 C          10.3528    4.9848    0.0000 C.3     1  UNL1        0.1520
     61 C          11.2130    5.4948    0.0000 C.3     1  UNL1        0.1152
     62 C           3.4030   -4.3147    0.0000 C.3     1  UNL1        0.0730
     63 C          10.3297    6.9847    0.0000 C.3     1  UNL1        0.0802
     64 C          11.2014    6.4947    0.0000 C.3     1  UNL1        0.1070
     65 C          11.2361    3.4949    0.0000 C.3     1  UNL1        0.1885
     66 C          11.2477    2.4950    0.0000 C.3     1  UNL1        0.1341
     67 C          12.1194    2.0050    0.0000 C.3     1  UNL1        0.1143
     68 C          12.9681    3.5150    0.0000 C.3     1  UNL1        0.0877
     69 C          12.9796    2.5150    0.0000 C.3     1  UNL1        0.1160
     70 C          13.8282    4.0249    0.0000 C.3     1  UNL1       -0.0361
     71 C          14.7115    2.5350    0.0000 C.3     1  UNL1        0.1880
     72 C          15.5833    2.0451    0.0000 C.3     1  UNL1        0.1341
     73 C          16.4435    2.5551    0.0000 C.3     1  UNL1        0.1137
     74 C          15.5602    4.0450    0.0000 C.3     1  UNL1        0.0792
     75 C          16.4319    3.5550    0.0000 C.3     1  UNL1        0.1069
     76 H           7.4398   -0.4298    0.0000 H       1  UNL1        0.0315
     77 H           8.3314   -1.9895    0.0000 H       1  UNL1        0.0317
     78 H           9.2921   -0.2168    0.0000 H       1  UNL1        0.0271
     79 H           8.8824    0.4683    0.0000 H       1  UNL1        0.0271
     80 H           8.9079   -1.7406    0.0000 H       1  UNL1        0.0269
     81 H           9.3017   -1.0462    0.0000 H       1  UNL1        0.0269
     82 H           6.3466    2.6013    0.0000 H       1  UNL1        0.0357
     83 H           5.4251    0.4842    0.0000 H       1  UNL1        0.0310
     84 H           5.8263   -0.2045    0.0000 H       1  UNL1        0.0310
     85 H           5.7398   -1.0976    0.0000 H       1  UNL1        0.0296
     86 H           5.3300   -1.7826    0.0000 H       1  UNL1        0.0296
     87 H           8.8791    1.3114    0.0000 H       1  UNL1        0.0274
     88 H           9.2836    1.9996    0.0000 H       1  UNL1        0.0274
     89 H           8.8623   -0.0472    0.0000 H       1  UNL1        0.0235
     90 H           9.3624    0.6730    0.0000 H       1  UNL1        0.0235
     91 H           8.6422    1.1732    0.0000 H       1  UNL1        0.0235
     92 H           9.2868    2.8291    0.0000 H       1  UNL1        0.0276
     93 H           8.8876    3.5204    0.0000 H       1  UNL1        0.0276
     94 H           7.4046   -3.6236    0.0000 H       1  UNL1        0.0634
     95 H           5.4941    1.6868    0.0000 H       1  UNL1        0.0572
     96 H           5.3956   -2.4534    0.0000 H       1  UNL1        0.0619
     97 H           6.3400   -0.1203    0.0000 H       1  UNL1        0.0235
     98 H           5.4922   -0.3439    0.0000 H       1  UNL1        0.0235
     99 H           5.7158   -1.1917    0.0000 H       1  UNL1        0.0235
    100 H           8.6444    0.6047    0.0000 H       1  UNL1        0.0238
    101 H           9.3607    1.1104    0.0000 H       1  UNL1        0.0238
    102 H           8.8550    1.8267    0.0000 H       1  UNL1        0.0238
    103 H           5.3095    3.5349    0.0000 H       1  UNL1        0.0276
    104 H           5.7246    2.8530    0.0000 H       1  UNL1        0.0276
    105 H           8.3869    4.4314    0.0000 H       1  UNL1        0.0276
    106 H           7.9877    5.1227    0.0000 H       1  UNL1        0.0276
    107 H           7.2302    5.5562    0.0000 H       1  UNL1        0.0271
    108 H           6.4319    5.5501    0.0000 H       1  UNL1        0.0271
    109 H           8.8094   -3.3808    0.0000 H       1  UNL1        0.0241
    110 H           9.4246   -2.7560    0.0000 H       1  UNL1        0.0241
    111 H           8.7998   -2.1408    0.0000 H       1  UNL1        0.0241
    112 H           4.8920    5.1299    0.0000 H       1  UNL1        0.0235
    113 H           4.2816    4.5004    0.0000 H       1  UNL1        0.0235
    114 H           4.9111    3.8900    0.0000 H       1  UNL1        0.0235
    115 H           5.9202    5.7018    0.0000 H       1  UNL1        0.0235
    116 H           5.0699    5.9157    0.0000 H       1  UNL1        0.0235
    117 H           4.8560    5.0654    0.0000 H       1  UNL1        0.0235
    118 H           4.5251   -2.9477    0.0000 H       1  UNL1        0.2099
    119 H           6.0010   -4.1947    0.0000 H       1  UNL1        0.0938
    120 H           9.6254   -4.1575    0.0000 H       1  UNL1        0.2951
    121 H           6.0010   -6.4347    0.0000 H       1  UNL1        0.0671
    122 H           9.4882    4.8548    0.0000 H       1  UNL1        0.1085
    123 H           4.5981   -6.6247    0.0000 H       1  UNL1        0.0648
    124 H           4.2690   -4.1947    0.0000 H       1  UNL1        0.0647
    125 H           3.7320   -5.5047    0.0000 H       1  UNL1        0.0647
    126 H          10.8933    4.6810    0.0000 H       1  UNL1        0.0687
    127 H           6.8671   -6.9347    0.0000 H       1  UNL1        0.2101
    128 H          11.7463    5.8110    0.0000 H       1  UNL1        0.0648
    129 H           3.8015   -3.8397    0.0000 H       1  UNL1        0.0584
    130 H           3.0044   -3.8397    0.0000 H       1  UNL1        0.0584
    131 H          10.7227    7.4642    0.0000 H       1  UNL1        0.0588
    132 H           9.9257    7.4550    0.0000 H       1  UNL1        0.0588
    133 H          11.1943    7.1147    0.0000 H       1  UNL1        0.0643
    134 H           4.5981   -7.6247    0.0000 H       1  UNL1        0.2100
    135 H           3.4030   -6.9347    0.0000 H       1  UNL1        0.2100
    136 H          10.7028    3.1787    0.0000 H       1  UNL1        0.0938
    137 H          12.6181    5.3210    0.0000 H       1  UNL1        0.2100
    138 H           2.0000   -4.5047    0.0000 H       1  UNL1        0.2095
    139 H          12.0544    7.6247    0.0000 H       1  UNL1        0.2100
    140 H          11.7810    2.8112    0.0000 H       1  UNL1        0.0671
    141 H          11.5861    1.6888    0.0000 H       1  UNL1        0.0648
    142 H          12.9609    4.1349    0.0000 H       1  UNL1        0.0621
    143 H          13.5129    2.8312    0.0000 H       1  UNL1        0.0650
    144 H          10.3947    1.3651    0.0000 H       1  UNL1        0.2101
    145 H          14.1444    3.4916    0.0000 H       1  UNL1        0.0255
    146 H          14.3616    4.3411    0.0000 H       1  UNL1        0.0255
    147 H          13.5120    4.5582    0.0000 H       1  UNL1        0.0255
    148 H          12.6715    0.7013    0.0000 H       1  UNL1        0.2100
    149 H          14.7187    1.9151    0.0000 H       1  UNL1        0.0937
    150 H          16.1238    1.7413    0.0000 H       1  UNL1        0.0671
    151 H          16.9768    2.8713    0.0000 H       1  UNL1        0.0647
    152 H          15.9532    4.5245    0.0000 H       1  UNL1        0.0587
    153 H          15.1562    4.5153    0.0000 H       1  UNL1        0.0587
    154 H          16.4248    4.1750    0.0000 H       1  UNL1        0.0643
    155 H          16.1353    0.7414    0.0000 H       1  UNL1        0.2101
    156 H          17.8485    2.3813    0.0000 H       1  UNL1        0.2100
    157 H          17.2849    4.6849    0.0000 H       1  UNL1        0.2100
@<TRIPOS>BOND
     1     1    40    1
     2     1    54    1
     3     2    42    1
     4     2   118    1
     5     3    51    1
     6     3    56    1
     7     4    50    1
     8     4   120    1
     9     5    50    2
    10     6    51    2
    11     7    54    1
    12     7    58    1
    13     8    56    1
    14     8    63    1
    15     9    55    1
    16     9   127    1
    17    10    57    1
    18    10   134    1
    19    11    60    1
    20    11    65    1
    21    12    59    1
    22    12   135    1
    23    13    61    1
    24    13   137    1
    25    14    62    1
    26    14   138    1
    27    15    64    1
    28    15   139    1
    29    16    65    1
    30    16    68    1
    31    17    66    1
    32    17   144    1
    33    18    67    1
    34    18   148    1
    35    19    69    1
    36    19    71    1
    37    20    71    1
    38    20    74    1
    39    21    72    1
    40    21   155    1
    41    22    73    1
    42    22   156    1
    43    23    75    1
    44    23   157    1
    45    24    25    1
    46    24    27    1
    47    24    29    1
    48    24    38    1
    49    25    26    1
    50    25    34    1
    51    25    76    1
    52    26    28    1
    53    26    35    1
    54    26    43    1
    55    27    30    1
    56    27    36    1
    57    27    44    1
    58    28    31    1
    59    28    32    1
    60    28    77    1
    61    29    31    1
    62    29    78    1
    63    29    79    1
    64    30    33    1
    65    30    41    2
    66    31    80    1
    67    31    81    1
    68    32    40    1
    69    32    49    1
    70    32    50    1
    71    33    37    1
    72    33    45    1
    73    33    82    1
    74    34    41    1
    75    34    83    1
    76    34    84    1
    77    35    42    1
    78    35    85    1
    79    35    86    1
    80    36    39    1
    81    36    87    1
    82    36    88    1
    83    37    39    1
    84    37    46    1
    85    37    51    1
    86    38    89    1
    87    38    90    1
    88    38    91    1
    89    39    92    1
    90    39    93    1
    91    40    42    1
    92    40    94    1
    93    41    95    1
    94    42    96    1
    95    43    97    1
    96    43    98    1
    97    43    99    1
    98    44   100    1
    99    44   101    1
   100    44   102    1
   101    45    47    1
   102    45   103    1
   103    45   104    1
   104    46    48    1
   105    46   105    1
   106    46   106    1
   107    47    48    1
   108    47    52    1
   109    47    53    1
   110    48   107    1
   111    48   108    1
   112    49   109    1
   113    49   110    1
   114    49   111    1
   115    52   115    1
   116    52   116    1
   117    52   117    1
   118    53   112    1
   119    53   113    1
   120    53   114    1
   121    54    55    1
   122    54   119    1
   123    55    57    1
   124    55   121    1
   125    56    60    1
   126    56   122    1
   127    57    59    1
   128    57   123    1
   129    58    59    1
   130    58    62    1
   131    58   124    1
   132    59   125    1
   133    60    61    1
   134    60   126    1
   135    61    64    1
   136    61   128    1
   137    62   129    1
   138    62   130    1
   139    63    64    1
   140    63   131    1
   141    63   132    1
   142    64   133    1
   143    65    66    1
   144    65   136    1
   145    66    67    1
   146    66   140    1
   147    67    69    1
   148    67   141    1
   149    68    69    1
   150    68    70    1
   151    68   142    1
   152    69   143    1
   153    70   145    1
   154    70   146    1
   155    70   147    1
   156    71    72    1
   157    71   149    1
   158    72    73    1
   159    72   150    1
   160    73    75    1
   161    73   151    1
   162    74    75    1
   163    74   152    1
   164    74   153    1
   165    75   154    1
