@<TRIPOS>MOLECULE
IMPHY010160
 58 59 0 0 0
SMALL
GASTEIGER

@<TRIPOS>ATOM
      1 O           4.6660    3.0000    0.0000 O.2     1  UNL1       -0.2872
      2 N           4.6660   -0.0000    0.0000 N.ar    1  UNL1       -0.3466
      3 C           8.1301   -0.0000    0.0000 C.3     1  UNL1       -0.0527
      4 C           8.9962    0.5000    0.0000 C.3     1  UNL1       -0.0530
      5 C           7.2641    0.5000    0.0000 C.3     1  UNL1       -0.0477
      6 C           9.8622    0.0000    0.0000 C.3     1  UNL1       -0.0528
      7 C           6.3981   -0.0000    0.0000 C.3     1  UNL1       -0.0122
      8 C          10.7282    0.5000    0.0000 C.3     1  UNL1       -0.0496
      9 C           5.5321    0.5000    0.0000 C.ar    1  UNL1        0.0225
     10 C          11.5942    0.0000    0.0000 C.3     1  UNL1       -0.0348
     11 C           3.8000    0.5000    0.0000 C.ar    1  UNL1        0.0527
     12 C           5.5321    1.5000    0.0000 C.ar    1  UNL1        0.0051
     13 C           3.8000    1.5000    0.0000 C.ar    1  UNL1        0.0452
     14 C           4.6660    2.0000    0.0000 C.ar    1  UNL1        0.1897
     15 C           4.6660   -1.0000    0.0000 C.3     1  UNL1        0.0121
     16 C          12.4603    0.5000    0.0000 C.2     1  UNL1       -0.0879
     17 C           2.9061   -0.0347    0.0000 C.ar    1  UNL1       -0.0375
     18 C          13.3263   -1.0000    0.0000 C.3     1  UNL1       -0.0348
     19 C          13.3263    0.0000    0.0000 C.2     1  UNL1       -0.0879
     20 C           2.9061    2.0347    0.0000 C.ar    1  UNL1       -0.0490
     21 C          14.1923   -1.5000    0.0000 C.3     1  UNL1       -0.0499
     22 C           2.0000    0.4792    0.0000 C.ar    1  UNL1       -0.0598
     23 C          14.1923   -2.5000    0.0000 C.3     1  UNL1       -0.0556
     24 C           2.0000    1.5208    0.0000 C.ar    1  UNL1       -0.0610
     25 C          15.0583   -3.0000    0.0000 C.3     1  UNL1       -0.0653
     26 H           7.7316   -0.4749    0.0000 H       1  UNL1        0.0265
     27 H           8.5287   -0.4749    0.0000 H       1  UNL1        0.0265
     28 H           9.3947    0.9749    0.0000 H       1  UNL1        0.0265
     29 H           8.5976    0.9749    0.0000 H       1  UNL1        0.0265
     30 H           7.6626    0.9749    0.0000 H       1  UNL1        0.0269
     31 H           6.8656    0.9749    0.0000 H       1  UNL1        0.0269
     32 H           9.4637   -0.4749    0.0000 H       1  UNL1        0.0265
     33 H          10.2607   -0.4749    0.0000 H       1  UNL1        0.0265
     34 H           5.9996   -0.4749    0.0000 H       1  UNL1        0.0328
     35 H           6.7966   -0.4749    0.0000 H       1  UNL1        0.0328
     36 H          11.1267    0.9749    0.0000 H       1  UNL1        0.0268
     37 H          10.3297    0.9749    0.0000 H       1  UNL1        0.0268
     38 H          11.1957   -0.4749    0.0000 H       1  UNL1        0.0307
     39 H          11.9928   -0.4749    0.0000 H       1  UNL1        0.0307
     40 H           6.0690    1.8100    0.0000 H       1  UNL1        0.0673
     41 H           4.0460   -1.0000    0.0000 H       1  UNL1        0.0456
     42 H           4.6660   -1.6200    0.0000 H       1  UNL1        0.0456
     43 H           5.2860   -1.0000    0.0000 H       1  UNL1        0.0456
     44 H          12.4603    1.1200    0.0000 H       1  UNL1        0.0569
     45 H           2.9132   -0.6546    0.0000 H       1  UNL1        0.0638
     46 H          12.7157   -0.8923    0.0000 H       1  UNL1        0.0307
     47 H          13.1142   -1.5826    0.0000 H       1  UNL1        0.0307
     48 H          13.8632    0.3100    0.0000 H       1  UNL1        0.0569
     49 H           2.9132    2.6546    0.0000 H       1  UNL1        0.0625
     50 H          14.8029   -1.6077    0.0000 H       1  UNL1        0.0268
     51 H          14.4044   -0.9174    0.0000 H       1  UNL1        0.0268
     52 H           1.4643    0.1671    0.0000 H       1  UNL1        0.0618
     53 H          13.5817   -2.3923    0.0000 H       1  UNL1        0.0263
     54 H          13.9803   -3.0826    0.0000 H       1  UNL1        0.0263
     55 H           1.4643    1.8329    0.0000 H       1  UNL1        0.0618
     56 H          14.7483   -3.5369    0.0000 H       1  UNL1        0.0230
     57 H          15.5953   -3.3100    0.0000 H       1  UNL1        0.0230
     58 H          15.3683   -2.4631    0.0000 H       1  UNL1        0.0230
@<TRIPOS>BOND
     1     1    14    2
     2     2     9   ar
     3     2    11   ar
     4     2    15    1
     5     3     4    1
     6     3     5    1
     7     3    26    1
     8     3    27    1
     9     4     6    1
    10     4    28    1
    11     4    29    1
    12     5     7    1
    13     5    30    1
    14     5    31    1
    15     6     8    1
    16     6    32    1
    17     6    33    1
    18     7     9    1
    19     7    34    1
    20     7    35    1
    21     8    10    1
    22     8    36    1
    23     8    37    1
    24     9    12   ar
    25    10    16    1
    26    10    38    1
    27    10    39    1
    28    11    13   ar
    29    11    17   ar
    30    12    14   ar
    31    12    40    1
    32    13    14   ar
    33    13    20   ar
    34    15    41    1
    35    15    42    1
    36    15    43    1
    37    16    19    2
    38    16    44    1
    39    17    22   ar
    40    17    45    1
    41    18    19    1
    42    18    21    1
    43    18    46    1
    44    18    47    1
    45    19    48    1
    46    20    24   ar
    47    20    49    1
    48    21    23    1
    49    21    50    1
    50    21    51    1
    51    22    24   ar
    52    22    52    1
    53    23    25    1
    54    23    53    1
    55    23    54    1
    56    24    55    1
    57    25    56    1
    58    25    57    1
    59    25    58    1
