@<TRIPOS>MOLECULE
IMPHY009064
 53 56 0 0 0
SMALL
GASTEIGER

@<TRIPOS>ATOM
      1 O           6.3580   -0.2847    0.0000 O.3     1  UNL1       -0.4826
      2 O           4.5981    2.7500    0.0000 O.3     1  UNL1       -0.4942
      3 O           6.3465    2.7846    0.0000 O.2     1  UNL1       -0.2917
      4 O           2.8660   -0.2500    0.0000 O.3     1  UNL1       -0.4946
      5 O          10.8076    0.0203    0.0000 O.3     1  UNL1       -0.4526
      6 O          10.8014   -1.5892    0.0000 O.3     1  UNL1       -0.4526
      7 C           7.2641    0.2292    0.0000 C.3     1  UNL1        0.1323
      8 C           7.2641    1.2708    0.0000 C.3     1  UNL1        0.0520
      9 C           5.4641    0.2500    0.0000 C.ar    1  UNL1        0.1423
     10 C           5.4641    1.2500    0.0000 C.ar    1  UNL1        0.1012
     11 C           8.1282   -0.2742    0.0000 C.ar    1  UNL1       -0.0033
     12 C           6.3580    1.7847    0.0000 C.2     1  UNL1        0.1740
     13 C           4.5981   -0.2500    0.0000 C.ar    1  UNL1        0.0405
     14 C           4.5981    1.7500    0.0000 C.ar    1  UNL1        0.1376
     15 C           4.5981   -1.2500    0.0000 C.3     1  UNL1       -0.0023
     16 C           3.7320    0.2500    0.0000 C.ar    1  UNL1        0.1305
     17 C           8.9962    0.2225    0.0000 C.ar    1  UNL1       -0.0095
     18 C           8.1244   -1.2741    0.0000 C.ar    1  UNL1       -0.0514
     19 C           3.7320    1.2500    0.0000 C.ar    1  UNL1        0.0230
     20 C           9.8602   -0.2808    0.0000 C.ar    1  UNL1        0.1666
     21 C           9.8564   -1.2808    0.0000 C.ar    1  UNL1        0.1662
     22 C           8.9884   -1.7775    0.0000 C.ar    1  UNL1       -0.0158
     23 C           3.7320   -1.7500    0.0000 C.2     1  UNL1       -0.0807
     24 C          11.3881   -0.7867    0.0000 C.3     1  UNL1        0.2332
     25 C           3.7320   -2.7500    0.0000 C.2     1  UNL1       -0.0793
     26 C           3.7320    3.2500    0.0000 C.3     1  UNL1        0.0788
     27 C           2.0000    0.2500    0.0000 C.3     1  UNL1        0.0788
     28 C           2.8660   -3.2500    0.0000 C.3     1  UNL1       -0.0440
     29 C           4.5981   -3.2500    0.0000 C.3     1  UNL1       -0.0440
     30 H           7.2605   -0.3908    0.0000 H       1  UNL1        0.0789
     31 H           7.8750    1.1647    0.0000 H       1  UNL1        0.0385
     32 H           7.4732    1.8545    0.0000 H       1  UNL1        0.0385
     33 H           4.8101   -1.8326    0.0000 H       1  UNL1        0.0358
     34 H           5.2087   -1.1423    0.0000 H       1  UNL1        0.0358
     35 H           8.9985    0.8425    0.0000 H       1  UNL1        0.0659
     36 H           7.5862   -1.5821    0.0000 H       1  UNL1        0.0623
     37 H           3.1951    1.5600    0.0000 H       1  UNL1        0.0691
     38 H           8.9860   -2.3975    0.0000 H       1  UNL1        0.0655
     39 H           3.1951   -1.4400    0.0000 H       1  UNL1        0.0575
     40 H          11.8474   -1.2032    0.0000 H       1  UNL1        0.1166
     41 H          11.8506   -0.3738    0.0000 H       1  UNL1        0.1166
     42 H           4.0420    3.7869    0.0000 H       1  UNL1        0.0660
     43 H           3.1951    3.5600    0.0000 H       1  UNL1        0.0660
     44 H           3.4220    2.7131    0.0000 H       1  UNL1        0.0660
     45 H           2.3100    0.7869    0.0000 H       1  UNL1        0.0660
     46 H           1.4631    0.5600    0.0000 H       1  UNL1        0.0660
     47 H           1.6900   -0.2869    0.0000 H       1  UNL1        0.0660
     48 H           2.5560   -2.7131    0.0000 H       1  UNL1        0.0274
     49 H           2.3291   -3.5600    0.0000 H       1  UNL1        0.0274
     50 H           3.1760   -3.7869    0.0000 H       1  UNL1        0.0274
     51 H           4.2881   -3.7869    0.0000 H       1  UNL1        0.0274
     52 H           5.1350   -3.5600    0.0000 H       1  UNL1        0.0274
     53 H           4.9081   -2.7131    0.0000 H       1  UNL1        0.0274
@<TRIPOS>BOND
     1     1     7    1
     2     1     9    1
     3     2    14    1
     4     2    26    1
     5     3    12    2
     6     4    16    1
     7     4    27    1
     8     5    20    1
     9     5    24    1
    10     6    21    1
    11     6    24    1
    12     7     8    1
    13     7    11    1
    14     7    30    1
    15     8    12    1
    16     8    31    1
    17     8    32    1
    18     9    10   ar
    19     9    13   ar
    20    10    12    1
    21    10    14   ar
    22    11    17   ar
    23    11    18   ar
    24    13    15    1
    25    13    16   ar
    26    14    19   ar
    27    15    23    1
    28    15    33    1
    29    15    34    1
    30    16    19   ar
    31    17    20   ar
    32    17    35    1
    33    18    22   ar
    34    18    36    1
    35    19    37    1
    36    20    21   ar
    37    21    22   ar
    38    22    38    1
    39    23    25    2
    40    23    39    1
    41    24    40    1
    42    24    41    1
    43    25    28    1
    44    25    29    1
    45    26    42    1
    46    26    43    1
    47    26    44    1
    48    27    45    1
    49    27    46    1
    50    27    47    1
    51    28    48    1
    52    28    49    1
    53    28    50    1
    54    29    51    1
    55    29    52    1
    56    29    53    1
