@<TRIPOS>MOLECULE
IMPHY005109
 86 90 0 0 0
SMALL
GASTEIGER

@<TRIPOS>ATOM
      1 O          10.1330    2.3388    0.0000 O.3     1  UNL1       -0.4610
      2 O           9.2612    3.8354    0.0000 O.2     1  UNL1       -0.2512
      3 C           4.7931   -0.8056    0.0000 C.3     1  UNL1       -0.0194
      4 C           5.6591   -1.3056    0.0000 C.3     1  UNL1       -0.0196
      5 C           3.8831   -1.3124    0.0000 C.3     1  UNL1       -0.0289
      6 C           3.8751   -2.3540    0.0000 C.3     1  UNL1       -0.0236
      7 C           6.5251   -0.8056    0.0000 C.3     1  UNL1       -0.0135
      8 C           5.6752   -2.3471    0.0000 C.3     1  UNL1       -0.0460
      9 C           4.7771   -2.8748    0.0000 C.3     1  UNL1       -0.0463
     10 C           2.9396   -2.9038    0.0000 C.3     1  UNL1       -0.0292
     11 C           7.4191    0.7291    0.0000 C.3     1  UNL1       -0.0073
     12 C           6.5251    0.1944    0.0000 C.2     1  UNL1       -0.0636
     13 C           4.7931    0.1944    0.0000 C.3     1  UNL1       -0.0283
     14 C           8.3252    0.2152    0.0000 C.3     1  UNL1       -0.0234
     15 C           2.9562   -0.7484    0.0000 C.3     1  UNL1       -0.0492
     16 C           7.4191   -1.3402    0.0000 C.3     1  UNL1       -0.0457
     17 C           3.9271   -0.3056    0.0000 C.3     1  UNL1       -0.0585
     18 C           6.5251   -1.8056    0.0000 C.3     1  UNL1       -0.0585
     19 C           8.3252   -0.8264    0.0000 C.3     1  UNL1       -0.0483
     20 C           2.0000   -2.3613    0.0000 C.3     1  UNL1       -0.0474
     21 C           5.6591    0.6944    0.0000 C.2     1  UNL1       -0.0834
     22 C           9.2689    0.7505    0.0000 C.3     1  UNL1        0.0058
     23 C           2.0084   -1.2763    0.0000 C.3     1  UNL1       -0.0523
     24 C           4.0412   -3.3401    0.0000 C.3     1  UNL1       -0.0588
     25 C           7.3940    1.8138    0.0000 C.3     1  UNL1       -0.0403
     26 C           9.2689    1.8355    0.0000 C.3     1  UNL1        0.1084
     27 C           2.4430   -3.7717    0.0000 C.3     1  UNL1       -0.0593
     28 C           3.2853   -3.8421    0.0000 C.3     1  UNL1       -0.0593
     29 C           6.5492    1.2224    0.0000 C.3     1  UNL1       -0.0556
     30 C           8.3252    2.3707    0.0000 C.3     1  UNL1       -0.0144
     31 C          10.2689    0.7466    0.0000 C.3     1  UNL1       -0.0562
     32 C           9.7656   -0.1175    0.0000 C.3     1  UNL1       -0.0562
     33 C          10.1292    3.3388    0.0000 C.2     1  UNL1        0.3042
     34 C          10.9933    3.8421    0.0000 C.3     1  UNL1        0.0332
     35 H           4.6142   -1.7459    0.0000 H       1  UNL1        0.0312
     36 H           7.2645   -0.3863    0.0000 H       1  UNL1        0.0351
     37 H           5.8932   -2.9275    0.0000 H       1  UNL1        0.0271
     38 H           6.2843   -2.2316    0.0000 H       1  UNL1        0.0271
     39 H           4.3798   -3.3508    0.0000 H       1  UNL1        0.0271
     40 H           5.1781   -3.3477    0.0000 H       1  UNL1        0.0271
     41 H           4.5810    0.7770    0.0000 H       1  UNL1        0.0313
     42 H           4.1825    0.0868    0.0000 H       1  UNL1        0.0313
     43 H           9.0596   -0.2126    0.0000 H       1  UNL1        0.0315
     44 H           3.3645   -0.2817    0.0000 H       1  UNL1        0.0268
     45 H           2.5663   -0.2663    0.0000 H       1  UNL1        0.0268
     46 H           7.0145   -1.8100    0.0000 H       1  UNL1        0.0271
     47 H           7.8127   -1.8193    0.0000 H       1  UNL1        0.0271
     48 H           4.2371    0.2314    0.0000 H       1  UNL1        0.0235
     49 H           3.3901    0.0044    0.0000 H       1  UNL1        0.0235
     50 H           3.6171   -0.8425    0.0000 H       1  UNL1        0.0235
     51 H           6.2151   -2.3425    0.0000 H       1  UNL1        0.0235
     52 H           7.0621   -2.1156    0.0000 H       1  UNL1        0.0235
     53 H           6.8351   -1.2686    0.0000 H       1  UNL1        0.0235
     54 H           8.5342   -1.4101    0.0000 H       1  UNL1        0.0269
     55 H           8.9360   -0.7203    0.0000 H       1  UNL1        0.0269
     56 H           1.3900   -2.2505    0.0000 H       1  UNL1        0.0271
     57 H           1.7864   -2.9433    0.0000 H       1  UNL1        0.0271
     58 H           5.6591    1.3144    0.0000 H       1  UNL1        0.0572
     59 H           1.8038   -0.6910    0.0000 H       1  UNL1        0.0266
     60 H           1.3967   -1.3777    0.0000 H       1  UNL1        0.0266
     61 H           3.4298   -3.4431    0.0000 H       1  UNL1        0.0235
     62 H           4.1442   -3.9515    0.0000 H       1  UNL1        0.0235
     63 H           4.6526   -3.2371    0.0000 H       1  UNL1        0.0235
     64 H           7.1715    2.3925    0.0000 H       1  UNL1        0.0275
     65 H           6.7858    1.6936    0.0000 H       1  UNL1        0.0275
     66 H           9.2654    2.4554    0.0000 H       1  UNL1        0.0739
     67 H           2.7035   -4.0564    0.0000 H       1  UNL1        0.0235
     68 H           3.4996   -4.4239    0.0000 H       1  UNL1        0.0235
     69 H           3.8671   -3.6278    0.0000 H       1  UNL1        0.0235
     70 H           1.9048   -3.4638    0.0000 H       1  UNL1        0.0235
     71 H           2.1350   -4.3098    0.0000 H       1  UNL1        0.0235
     72 H           2.9811   -4.0796    0.0000 H       1  UNL1        0.0235
     73 H           6.8551    1.7617    0.0000 H       1  UNL1        0.0238
     74 H           6.0099    1.5282    0.0000 H       1  UNL1        0.0238
     75 H           6.2434    0.6831    0.0000 H       1  UNL1        0.0238
     76 H           8.7188    2.8497    0.0000 H       1  UNL1        0.0301
     77 H           7.9206    2.8405    0.0000 H       1  UNL1        0.0301
     78 H          10.2665    0.1266    0.0000 H       1  UNL1        0.0236
     79 H          10.8889    0.7442    0.0000 H       1  UNL1        0.0236
     80 H          10.2713    1.3666    0.0000 H       1  UNL1        0.0236
     81 H           9.2275   -0.4254    0.0000 H       1  UNL1        0.0236
     82 H          10.0735   -0.6556    0.0000 H       1  UNL1        0.0236
     83 H          10.3037    0.1904    0.0000 H       1  UNL1        0.0236
     84 H          11.3053    3.3064    0.0000 H       1  UNL1        0.0342
     85 H          11.5290    4.1542    0.0000 H       1  UNL1        0.0342
     86 H          10.6812    4.3779    0.0000 H       1  UNL1        0.0342
@<TRIPOS>BOND
     1    26     1    1
     2     1    33    1
     3     2    33    2
     4     3     4    1
     5     3     5    1
     6     3    13    1
     7     3    17    1
     8     4     7    1
     9     4     8    1
    10     4    18    1
    11     5     6    1
    12     5    15    1
    13     5    35    1
    14     6     9    1
    15     6    10    1
    16     6    24    1
    17     7    12    1
    18     7    16    1
    19     7    36    1
    20     8     9    1
    21     8    37    1
    22     8    38    1
    23     9    39    1
    24     9    40    1
    25    10    20    1
    26    10    27    1
    27    10    28    1
    28    11    12    1
    29    11    14    1
    30    11    25    1
    31    11    29    1
    32    12    21    2
    33    13    21    1
    34    13    41    1
    35    13    42    1
    36    14    19    1
    37    14    22    1
    38    14    43    1
    39    15    23    1
    40    15    44    1
    41    15    45    1
    42    16    19    1
    43    16    46    1
    44    16    47    1
    45    17    48    1
    46    17    49    1
    47    17    50    1
    48    18    51    1
    49    18    52    1
    50    18    53    1
    51    19    54    1
    52    19    55    1
    53    20    23    1
    54    20    56    1
    55    20    57    1
    56    21    58    1
    57    22    26    1
    58    22    31    1
    59    22    32    1
    60    23    59    1
    61    23    60    1
    62    24    61    1
    63    24    62    1
    64    24    63    1
    65    25    30    1
    66    25    64    1
    67    25    65    1
    68    26    30    1
    69    26    66    1
    70    27    70    1
    71    27    71    1
    72    27    72    1
    73    28    67    1
    74    28    68    1
    75    28    69    1
    76    29    73    1
    77    29    74    1
    78    29    75    1
    79    30    76    1
    80    30    77    1
    81    31    78    1
    82    31    79    1
    83    31    80    1
    84    32    81    1
    85    32    82    1
    86    32    83    1
    87    33    34    1
    88    34    84    1
    89    34    85    1
    90    34    86    1
