@<TRIPOS>MOLECULE
IMPHY007283
 49 50 0 0 0
SMALL
GASTEIGER

@<TRIPOS>ATOM
      1 O           9.0476   -0.2274    0.0000 O.3     1  UNL1       -0.3899
      2 O           5.5525   -0.0146    0.0000 O.3     1  UNL1       -0.4581
      3 O           4.0574    0.1662    0.0000 O.3     1  UNL1       -0.3752
      4 O           2.9782    2.3033    0.0000 O.3     1  UNL1       -0.3766
      5 O           5.9126    1.6796    0.0000 O.2     1  UNL1       -0.2475
      6 N           7.7907   -2.4826    0.0000 N.3     1  UNL1       -0.2895
      7 C           7.7907   -1.4826    0.0000 C.3     1  UNL1        0.0611
      8 C           8.7369   -1.1779    0.0000 C.3     1  UNL1        0.0758
      9 C           8.7369   -2.7873    0.0000 C.3     1  UNL1        0.0023
     10 C           9.3205   -1.9826    0.0000 C.3     1  UNL1       -0.0122
     11 C           6.8396   -1.1736    0.0000 C.2     1  UNL1       -0.0158
     12 C           6.8396   -2.7916    0.0000 C.3     1  UNL1        0.0182
     13 C           6.2519   -1.9826    0.0000 C.2     1  UNL1       -0.0661
     14 C           6.5306   -0.2225    0.0000 C.3     1  UNL1        0.1152
     15 C           4.2653    1.1444    0.0000 C.3     1  UNL1        0.1903
     16 C           4.4732    2.1225    0.0000 C.3     1  UNL1       -0.0048
     17 C           3.2872    1.3523    0.0000 C.3     1  UNL1        0.0948
     18 C           5.2435    0.9364    0.0000 C.2     1  UNL1        0.3423
     19 C           3.7301    2.7916    0.0000 C.3     1  UNL1       -0.0594
     20 C           5.4243    2.4315    0.0000 C.3     1  UNL1       -0.0594
     21 C           2.6180    0.6091    0.0000 C.3     1  UNL1       -0.0354
     22 C           2.0000    2.5112    0.0000 C.3     1  UNL1        0.0369
     23 H           7.7918   -0.6326    0.0000 H       1  UNL1        0.0536
     24 H           8.2995   -0.7385    0.0000 H       1  UNL1        0.0612
     25 H           8.4859   -3.3542    0.0000 H       1  UNL1        0.0428
     26 H           9.2743   -3.0966    0.0000 H       1  UNL1        0.0428
     27 H           9.7814   -2.3973    0.0000 H       1  UNL1        0.0303
     28 H           9.7814   -1.5679    0.0000 H       1  UNL1        0.0303
     29 H           6.3027   -3.1016    0.0000 H       1  UNL1        0.0470
     30 H           7.0918   -3.3580    0.0000 H       1  UNL1        0.0470
     31 H           5.6319   -1.9826    0.0000 H       1  UNL1        0.0586
     32 H           7.1446   -0.1362    0.0000 H       1  UNL1        0.0746
     33 H           6.5523    0.3971    0.0000 H       1  UNL1        0.0746
     34 H           9.6542   -0.0995    0.0000 H       1  UNL1        0.2099
     35 H           3.8836    1.9309    0.0000 H       1  UNL1        0.0329
     36 H           3.7020    1.8130    0.0000 H       1  UNL1        0.0627
     37 H           4.1449    3.2524    0.0000 H       1  UNL1        0.0233
     38 H           3.2693    3.2065    0.0000 H       1  UNL1        0.0233
     39 H           3.3152    2.3309    0.0000 H       1  UNL1        0.0233
     40 H           5.6159    1.8419    0.0000 H       1  UNL1        0.0233
     41 H           6.0139    2.6231    0.0000 H       1  UNL1        0.0233
     42 H           5.2327    3.0212    0.0000 H       1  UNL1        0.0233
     43 H           2.1573    1.0240    0.0000 H       1  UNL1        0.0256
     44 H           2.2032    0.1484    0.0000 H       1  UNL1        0.0256
     45 H           3.0788    0.1943    0.0000 H       1  UNL1        0.0256
     46 H           3.4678   -0.0254    0.0000 H       1  UNL1        0.2110
     47 H           2.1289    3.1177    0.0000 H       1  UNL1        0.0524
     48 H           1.3936    2.6401    0.0000 H       1  UNL1        0.0524
     49 H           1.8711    1.9048    0.0000 H       1  UNL1        0.0524
@<TRIPOS>BOND
     1     8     1    1
     2     1    34    1
     3     2    14    1
     4     2    18    1
     5    15     3    1
     6     3    46    1
     7    17     4    1
     8     4    22    1
     9     5    18    2
    10     6     7    1
    11     6     9    1
    12     6    12    1
    13     7     8    1
    14     7    11    1
    15     7    23    1
    16     8    10    1
    17     8    24    1
    18     9    10    1
    19     9    25    1
    20     9    26    1
    21    10    27    1
    22    10    28    1
    23    11    13    2
    24    11    14    1
    25    12    13    1
    26    12    29    1
    27    12    30    1
    28    13    31    1
    29    14    32    1
    30    14    33    1
    31    15    16    1
    32    15    17    1
    33    15    18    1
    34    16    19    1
    35    16    20    1
    36    16    35    1
    37    17    21    1
    38    17    36    1
    39    19    37    1
    40    19    38    1
    41    19    39    1
    42    20    40    1
    43    20    41    1
    44    20    42    1
    45    21    43    1
    46    21    44    1
    47    21    45    1
    48    22    47    1
    49    22    48    1
    50    22    49    1
