@<TRIPOS>MOLECULE
IMPHY006441
 40 43 0 0 0
SMALL
GASTEIGER

@<TRIPOS>ATOM
      1 N           4.6500   -1.3095    0.0000 N.3     1  UNL1       -0.3065
      2 N           2.9061    1.7667    0.0000 N.ar    1  UNL1       -0.2595
      3 C           4.6660   -0.2680    0.0000 C.3     1  UNL1        0.0495
      4 C           5.5321    0.2320    0.0000 C.3     1  UNL1       -0.0153
      5 C           5.5321    1.2320    0.0000 C.3     1  UNL1       -0.0306
      6 C           4.4629    0.1019    0.0000 C.3     1  UNL1       -0.0276
      7 C           5.1102    1.2229    0.0000 C.3     1  UNL1       -0.0469
      8 C           4.3793    0.8976    0.0000 C.3     1  UNL1       -0.0416
      9 C           6.4421   -0.2748    0.0000 C.3     1  UNL1       -0.0468
     10 C           4.6660    1.7320    0.0000 C.3     1  UNL1       -0.0069
     11 C           3.8000    0.2320    0.0000 C.ar    1  UNL1       -0.0058
     12 C           6.4501   -1.3164    0.0000 C.3     1  UNL1       -0.0401
     13 C           3.8000    1.2320    0.0000 C.ar    1  UNL1        0.0465
     14 C           5.5480   -1.8372    0.0000 C.3     1  UNL1       -0.0033
     15 C           4.0373    1.8372    0.0000 C.3     1  UNL1       -0.0623
     16 C           2.9061   -0.3026    0.0000 C.ar    1  UNL1       -0.0537
     17 C           2.0000    0.2112    0.0000 C.ar    1  UNL1       -0.0433
     18 C           2.0000    1.2528    0.0000 C.ar    1  UNL1        0.0279
     19 H           6.2682    0.6570    0.0000 H       1  UNL1        0.0325
     20 H           5.9571    1.9681    0.0000 H       1  UNL1        0.0308
     21 H           3.8682    0.2771    0.0000 H       1  UNL1        0.0289
     22 H           5.0546    0.2872    0.0000 H       1  UNL1        0.0289
     23 H           5.3341    1.8011    0.0000 H       1  UNL1        0.0271
     24 H           5.2456    0.6179    0.0000 H       1  UNL1        0.0271
     25 H           3.7752    0.7581    0.0000 H       1  UNL1        0.0299
     26 H           7.0537   -0.3762    0.0000 H       1  UNL1        0.0269
     27 H           6.6466    0.3105    0.0000 H       1  UNL1        0.0269
     28 H           5.0646    2.2070    0.0000 H       1  UNL1        0.0331
     29 H           4.2675    2.2070    0.0000 H       1  UNL1        0.0331
     30 H           4.1095   -1.6133    0.0000 H       1  UNL1        0.1228
     31 H           6.6636   -1.8985    0.0000 H       1  UNL1        0.0278
     32 H           7.0601   -1.2056    0.0000 H       1  UNL1        0.0278
     33 H           5.1470   -2.3101    0.0000 H       1  UNL1        0.0424
     34 H           5.9453   -2.3132    0.0000 H       1  UNL1        0.0424
     35 H           4.6199    2.0493    0.0000 H       1  UNL1        0.0232
     36 H           3.8252    2.4198    0.0000 H       1  UNL1        0.0232
     37 H           3.4547    1.6252    0.0000 H       1  UNL1        0.0232
     38 H           2.9132   -0.9226    0.0000 H       1  UNL1        0.0622
     39 H           1.4643   -0.1009    0.0000 H       1  UNL1        0.0633
     40 H           1.4643    1.5649    0.0000 H       1  UNL1        0.0829
@<TRIPOS>BOND
     1     3     1    1
     2     1    14    1
     3     1    30    1
     4     2    13   ar
     5     2    18   ar
     6     3     4    1
     7     3     6    1
     8     3    11    1
     9     4     5    1
    10     4     9    1
    11     4    19    1
    12     5     7    1
    13     5    10    1
    14     5    20    1
    15     6     8    1
    16     6    21    1
    17     6    22    1
    18     7     8    1
    19     7    23    1
    20     7    24    1
    21     8    15    1
    22     8    25    1
    23     9    12    1
    24     9    26    1
    25     9    27    1
    26    10    13    1
    27    10    28    1
    28    10    29    1
    29    11    13   ar
    30    11    16   ar
    31    12    14    1
    32    12    31    1
    33    12    32    1
    34    14    33    1
    35    14    34    1
    36    15    35    1
    37    15    36    1
    38    15    37    1
    39    16    17   ar
    40    16    38    1
    41    17    18   ar
    42    17    39    1
    43    18    40    1
