@<TRIPOS>MOLECULE
IMPHY016782
 22 22 0 0 0
SMALL
GASTEIGER

@<TRIPOS>ATOM
      1 C           3.7320    0.2500    0.0000 C.ar    1  UNL1       -0.0198
      2 C           2.8660   -0.2500    0.0000 C.ar    1  UNL1       -0.0431
      3 C           3.7320    1.2500    0.0000 C.2     1  UNL1       -0.0501
      4 C           4.5981   -0.2500    0.0000 C.ar    1  UNL1       -0.0541
      5 C           2.8660   -1.2500    0.0000 C.ar    1  UNL1       -0.0583
      6 C           2.0000    0.2500    0.0000 C.3     1  UNL1       -0.0391
      7 C           4.5981   -1.2500    0.0000 C.ar    1  UNL1       -0.0612
      8 C           3.7320   -1.7500    0.0000 C.ar    1  UNL1       -0.0615
      9 C           4.5981    1.7500    0.0000 C.3     1  UNL1       -0.0397
     10 C           2.8660    1.7500    0.0000 C.2     1  UNL1       -0.0952
     11 H           5.1350    0.0600    0.0000 H       1  UNL1        0.0624
     12 H           2.3291   -1.5600    0.0000 H       1  UNL1        0.0620
     13 H           2.3100    0.7869    0.0000 H       1  UNL1        0.0278
     14 H           1.4631    0.5600    0.0000 H       1  UNL1        0.0278
     15 H           1.6900   -0.2869    0.0000 H       1  UNL1        0.0278
     16 H           5.1350   -1.5600    0.0000 H       1  UNL1        0.0618
     17 H           3.7320   -2.3700    0.0000 H       1  UNL1        0.0618
     18 H           4.9081    1.2131    0.0000 H       1  UNL1        0.0278
     19 H           5.1350    2.0600    0.0000 H       1  UNL1        0.0278
     20 H           4.2881    2.2869    0.0000 H       1  UNL1        0.0278
     21 H           2.8660    2.3700    0.0000 H       1  UNL1        0.0538
     22 H           2.3291    1.4400    0.0000 H       1  UNL1        0.0538
@<TRIPOS>BOND
     1     1     2   ar
     2     1     3    1
     3     1     4   ar
     4     2     5   ar
     5     2     6    1
     6     3     9    1
     7     3    10    2
     8     4     7   ar
     9     4    11    1
    10     5     8   ar
    11     5    12    1
    12     6    13    1
    13     6    14    1
    14     6    15    1
    15     7     8   ar
    16     7    16    1
    17     8    17    1
    18     9    18    1
    19     9    19    1
    20     9    20    1
    21    10    21    1
    22    10    22    1
