@<TRIPOS>MOLECULE
IMPHY010324
 59 64 0 0 0
SMALL
GASTEIGER

@<TRIPOS>ATOM
      1 O           4.9429   -2.2066    0.0000 O.3     1  UNL1       -0.3912
      2 O           4.4110    2.4073    0.0000 O.3     1  UNL1       -0.3869
      3 O           2.6128   -1.3395    0.0000 O.3     1  UNL1       -0.3912
      4 N           6.3930    0.6908    0.0000 N.3     1  UNL1       -0.2982
      5 C           5.8307   -0.6751    0.0000 C.3     1  UNL1        0.0194
      6 C           4.9646    0.8249    0.0000 C.3     1  UNL1        0.0090
      7 C           5.8307    1.3249    0.0000 C.3     1  UNL1       -0.0159
      8 C           4.9646   -0.1751    0.0000 C.3     1  UNL1       -0.0203
      9 C           5.4646    0.3249    0.0000 C.3     1  UNL1        0.0224
     10 C           6.6967   -0.1751    0.0000 C.3     1  UNL1       -0.0244
     11 C           6.6967    0.8249    0.0000 C.3     1  UNL1       -0.0441
     12 C           7.6067   -0.6820    0.0000 C.3     1  UNL1       -0.0158
     13 C           5.8146   -1.7166    0.0000 C.3     1  UNL1        0.0628
     14 C           3.9653    0.7301    0.0000 C.3     1  UNL1       -0.0352
     15 C           4.1937    1.4312    0.0000 C.3     1  UNL1        0.0825
     16 C           4.1937   -0.7815    0.0000 C.3     1  UNL1       -0.0222
     17 C           2.8141    0.3249    0.0000 C.3     1  UNL1        0.0089
     18 C           7.2961    0.2663    0.0000 C.3     1  UNL1        0.0049
     19 C           7.6147   -1.7236    0.0000 C.3     1  UNL1       -0.0438
     20 C           6.7126   -2.2444    0.0000 C.3     1  UNL1       -0.0257
     21 C           3.2384   -0.5594    0.0000 C.3     1  UNL1        0.0621
     22 C           3.2384    1.2091    0.0000 C.2     1  UNL1       -0.0425
     23 C           8.4803   -1.1686    0.0000 C.3     1  UNL1       -0.0581
     24 C           6.4249    1.6903    0.0000 C.3     1  UNL1       -0.0036
     25 C           2.6128    1.9892    0.0000 C.2     1  UNL1       -0.0967
     26 C           7.3065    2.1624    0.0000 C.3     1  UNL1       -0.0523
     27 H           5.8307    2.1749    0.0000 H       1  UNL1        0.0322
     28 H           4.9646   -1.0251    0.0000 H       1  UNL1        0.0315
     29 H           4.6146    0.3249    0.0000 H       1  UNL1        0.0472
     30 H           7.5338   -0.3227    0.0000 H       1  UNL1        0.0313
     31 H           7.3073    0.7172    0.0000 H       1  UNL1        0.0272
     32 H           6.9087    1.4075    0.0000 H       1  UNL1        0.0272
     33 H           5.8086   -2.3366    0.0000 H       1  UNL1        0.0599
     34 H           4.1766    1.3130    0.0000 H       1  UNL1        0.0278
     35 H           4.0985    0.1245    0.0000 H       1  UNL1        0.0278
     36 H           4.7777    1.6395    0.0000 H       1  UNL1        0.0646
     37 H           3.9220   -1.3388    0.0000 H       1  UNL1        0.0293
     38 H           4.6762   -1.1709    0.0000 H       1  UNL1        0.0293
     39 H           1.9861    0.1324    0.0000 H       1  UNL1        0.0372
     40 H           7.9148    0.3063    0.0000 H       1  UNL1        0.0432
     41 H           7.4116    0.8755    0.0000 H       1  UNL1        0.0432
     42 H           7.8283   -2.3056    0.0000 H       1  UNL1        0.0272
     43 H           8.2247   -1.6128    0.0000 H       1  UNL1        0.0272
     44 H           6.3117   -2.7173    0.0000 H       1  UNL1        0.0290
     45 H           7.1100   -2.7204    0.0000 H       1  UNL1        0.0290
     46 H           3.4412   -1.1453    0.0000 H       1  UNL1        0.0599
     47 H           8.1786   -1.7102    0.0000 H       1  UNL1        0.0236
     48 H           9.0220   -1.4703    0.0000 H       1  UNL1        0.0236
     49 H           8.7820   -0.6269    0.0000 H       1  UNL1        0.0236
     50 H           6.2316    2.2794    0.0000 H       1  UNL1        0.0424
     51 H           5.8112    1.6022    0.0000 H       1  UNL1        0.0424
     52 H           4.9357   -2.8266    0.0000 H       1  UNL1        0.2098
     53 H           3.9542    2.8266    0.0000 H       1  UNL1        0.2102
     54 H           2.8378    2.5670    0.0000 H       1  UNL1        0.0535
     55 H           2.0000    1.8952    0.0000 H       1  UNL1        0.0535
     56 H           2.0000   -1.2455    0.0000 H       1  UNL1        0.2098
     57 H           7.5992    1.6158    0.0000 H       1  UNL1        0.0242
     58 H           7.8530    2.4551    0.0000 H       1  UNL1        0.0242
     59 H           7.0138    2.7090    0.0000 H       1  UNL1        0.0242
@<TRIPOS>BOND
     1    13     1    1
     2     1    52    1
     3    15     2    1
     4     2    53    1
     5    21     3    1
     6     3    56    1
     7     4     9    1
     8     4    18    1
     9     4    24    1
    10     5     8    1
    11     5     9    1
    12     5    10    1
    13     5    13    1
    14     6     7    1
    15     6     8    1
    16     6    14    1
    17     6    15    1
    18     7     9    1
    19     7    11    1
    20     7    27    1
    21     8    16    1
    22     8    28    1
    23     9    29    1
    24    10    11    1
    25    10    12    1
    26    10    30    1
    27    11    31    1
    28    11    32    1
    29    12    18    1
    30    12    19    1
    31    12    23    1
    32    13    20    1
    33    13    33    1
    34    14    17    1
    35    14    34    1
    36    14    35    1
    37    15    22    1
    38    15    36    1
    39    16    21    1
    40    16    37    1
    41    16    38    1
    42    17    21    1
    43    17    22    1
    44    17    39    1
    45    18    40    1
    46    18    41    1
    47    19    20    1
    48    19    42    1
    49    19    43    1
    50    20    44    1
    51    20    45    1
    52    21    46    1
    53    22    25    2
    54    23    47    1
    55    23    48    1
    56    23    49    1
    57    24    26    1
    58    24    50    1
    59    24    51    1
    60    25    54    1
    61    25    55    1
    62    26    57    1
    63    26    58    1
    64    26    59    1
