@<TRIPOS>MOLECULE
IMPHY015946
 41 43 0 0 0
SMALL
GASTEIGER

@<TRIPOS>ATOM
      1 O           6.0682   -0.4254    0.0000 O.2     1  UNL1       -0.4507
      2 O           7.8003    1.5746    0.0000 O.3     1  UNL1       -0.4883
      3 O           2.5381   -0.4495    0.0000 O.3     1  UNL1       -0.4912
      4 O           4.3198    2.6092    0.0000 O.3     1  UNL1       -0.5027
      5 O           6.0682    2.5746    0.0000 O.2     1  UNL1       -0.2830
      6 O           2.5381    1.5988    0.0000 O.3     1  UNL1       -0.5009
      7 O          10.3984   -1.9254    0.0000 O.3     1  UNL1       -0.4951
      8 C           5.2022    1.0746    0.0000 C.ar    1  UNL1        0.1128
      9 C           5.2022    0.0746    0.0000 C.ar    1  UNL1        0.1468
     10 C           6.9343    0.0746    0.0000 C.ar    1  UNL1        0.1808
     11 C           6.9343    1.0746    0.0000 C.ar    1  UNL1        0.2107
     12 C           6.0682    1.5746    0.0000 C.ar    1  UNL1        0.2382
     13 C           7.8003   -0.4254    0.0000 C.ar    1  UNL1        0.0213
     14 C           4.3083    1.6093    0.0000 C.ar    1  UNL1        0.1767
     15 C           4.3083   -0.4601    0.0000 C.ar    1  UNL1        0.0270
     16 C           3.4022    0.0538    0.0000 C.ar    1  UNL1        0.1685
     17 C           3.4022    1.0954    0.0000 C.ar    1  UNL1        0.2018
     18 C           8.6663    0.0746    0.0000 C.ar    1  UNL1       -0.0475
     19 C           7.8003   -1.4254    0.0000 C.ar    1  UNL1       -0.0475
     20 C           9.5323   -0.4254    0.0000 C.ar    1  UNL1       -0.0193
     21 C           8.6663   -1.9254    0.0000 C.ar    1  UNL1       -0.0193
     22 C           9.5323   -1.4254    0.0000 C.ar    1  UNL1        0.1201
     23 C           7.8003    2.5746    0.0000 C.3     1  UNL1        0.0791
     24 C           2.5420   -1.4495    0.0000 C.3     1  UNL1        0.0790
     25 C          10.3984   -2.9254    0.0000 C.3     1  UNL1        0.0788
     26 H           4.3154   -1.0800    0.0000 H       1  UNL1        0.0692
     27 H           8.6663    0.6946    0.0000 H       1  UNL1        0.0626
     28 H           7.2634   -1.7354    0.0000 H       1  UNL1        0.0626
     29 H          10.0693   -0.1154    0.0000 H       1  UNL1        0.0654
     30 H           8.6663   -2.5454    0.0000 H       1  UNL1        0.0654
     31 H           3.7865    2.9254    0.0000 H       1  UNL1        0.2923
     32 H           2.0000    1.2908    0.0000 H       1  UNL1        0.2924
     33 H           8.4203    2.5746    0.0000 H       1  UNL1        0.0660
     34 H           7.8003    3.1946    0.0000 H       1  UNL1        0.0660
     35 H           7.1803    2.5746    0.0000 H       1  UNL1        0.0660
     36 H           1.9220   -1.4519    0.0000 H       1  UNL1        0.0660
     37 H           2.5444   -2.0695    0.0000 H       1  UNL1        0.0660
     38 H           3.1620   -1.4471    0.0000 H       1  UNL1        0.0660
     39 H           9.7784   -2.9254    0.0000 H       1  UNL1        0.0660
     40 H          10.3984   -3.5454    0.0000 H       1  UNL1        0.0660
     41 H          11.0184   -2.9254    0.0000 H       1  UNL1        0.0660
@<TRIPOS>BOND
     1     1     9   ar
     2     1    10   ar
     3     2    11    1
     4     2    23    1
     5     3    16    1
     6     3    24    1
     7     4    14    1
     8     4    31    1
     9     5    12    2
    10     6    17    1
    11     6    32    1
    12     7    22    1
    13     7    25    1
    14     8     9   ar
    15     8    12   ar
    16     8    14   ar
    17     9    15   ar
    18    10    11   ar
    19    10    13    1
    20    11    12   ar
    21    13    18   ar
    22    13    19   ar
    23    14    17   ar
    24    15    16   ar
    25    15    26    1
    26    16    17   ar
    27    18    20   ar
    28    18    27    1
    29    19    21   ar
    30    19    28    1
    31    20    22   ar
    32    20    29    1
    33    21    22   ar
    34    21    30    1
    35    23    33    1
    36    23    34    1
    37    23    35    1
    38    24    36    1
    39    24    37    1
    40    24    38    1
    41    25    39    1
    42    25    40    1
    43    25    41    1
