@<TRIPOS>MOLECULE
IMPHY010065
 40 41 0 0 0
SMALL
GASTEIGER

@<TRIPOS>ATOM
      1 O           7.1260    1.1486    0.0000 O.3     1  UNL1       -0.3882
      2 C           5.3742    0.2488    0.0000 C.3     1  UNL1        0.0124
      3 C           5.3792   -0.7512    0.0000 C.3     1  UNL1       -0.0112
      4 C           6.3189    0.5582    0.0000 C.3     1  UNL1        0.0701
      5 C           6.3269   -1.0512    0.0000 C.3     1  UNL1       -0.0433
      6 C           6.9065   -0.2436    0.0000 C.3     1  UNL1       -0.0231
      7 C           4.6005   -1.3786    0.0000 C.2     1  UNL1       -0.0726
      8 C           4.5893    0.8684    0.0000 C.2     1  UNL1       -0.0781
      9 C           6.0068    1.5083    0.0000 C.3     1  UNL1       -0.0355
     10 C           3.6244   -1.1609    0.0000 C.3     1  UNL1       -0.0280
     11 C           3.6155    0.6410    0.0000 C.2     1  UNL1       -0.0702
     12 C           3.1861   -0.2621    0.0000 C.3     1  UNL1       -0.0278
     13 C           2.9881    1.4197    0.0000 C.3     1  UNL1       -0.0255
     14 C           4.8278   -2.3524    0.0000 C.2     1  UNL1       -0.0992
     15 C           2.0000    1.2657    0.0000 C.3     1  UNL1       -0.0590
     16 C           3.3488    2.3524    0.0000 C.3     1  UNL1       -0.0590
     17 H           5.5229    1.0857    0.0000 H       1  UNL1        0.0377
     18 H           5.5362   -1.5866    0.0000 H       1  UNL1        0.0352
     19 H           6.0787   -1.6194    0.0000 H       1  UNL1        0.0272
     20 H           6.8658   -1.3578    0.0000 H       1  UNL1        0.0272
     21 H           7.3694   -0.6560    0.0000 H       1  UNL1        0.0293
     22 H           7.3653    0.1734    0.0000 H       1  UNL1        0.0293
     23 H           4.7242    1.4735    0.0000 H       1  UNL1        0.0576
     24 H           6.5958    1.7018    0.0000 H       1  UNL1        0.0257
     25 H           5.8133    2.0973    0.0000 H       1  UNL1        0.0257
     26 H           5.4177    1.3148    0.0000 H       1  UNL1        0.0257
     27 H           3.0207   -1.3019    0.0000 H       1  UNL1        0.0313
     28 H           3.6275   -1.7809    0.0000 H       1  UNL1        0.0313
     29 H           2.6994    0.1220    0.0000 H       1  UNL1        0.0313
     30 H           2.7033   -0.6511    0.0000 H       1  UNL1        0.0313
     31 H           7.6932    0.8983    0.0000 H       1  UNL1        0.2102
     32 H           2.7644    0.8414    0.0000 H       1  UNL1        0.0340
     33 H           4.3755   -2.7764    0.0000 H       1  UNL1        0.0534
     34 H           5.4212   -2.5322    0.0000 H       1  UNL1        0.0534
     35 H           1.9045    1.8783    0.0000 H       1  UNL1        0.0235
     36 H           3.9270    2.1288    0.0000 H       1  UNL1        0.0235
     37 H           3.5724    2.9306    0.0000 H       1  UNL1        0.0235
     38 H           2.7705    2.5760    0.0000 H       1  UNL1        0.0235
     39 H           1.3874    1.1703    0.0000 H       1  UNL1        0.0235
     40 H           2.0955    0.6531    0.0000 H       1  UNL1        0.0235
@<TRIPOS>BOND
     1     4     1    1
     2     1    31    1
     3     2     3    1
     4     2     4    1
     5     2     8    1
     6     2    17    1
     7     3     5    1
     8     3     7    1
     9     3    18    1
    10     4     6    1
    11     4     9    1
    12     5     6    1
    13     5    19    1
    14     5    20    1
    15     6    21    1
    16     6    22    1
    17     7    10    1
    18     7    14    2
    19     8    11    2
    20     8    23    1
    21     9    24    1
    22     9    25    1
    23     9    26    1
    24    10    12    1
    25    10    27    1
    26    10    28    1
    27    11    12    1
    28    11    13    1
    29    12    29    1
    30    12    30    1
    31    13    15    1
    32    13    16    1
    33    13    32    1
    34    14    33    1
    35    14    34    1
    36    15    35    1
    37    15    39    1
    38    15    40    1
    39    16    36    1
    40    16    37    1
    41    16    38    1
