@<TRIPOS>MOLECULE
IMPHY009623
 129 134 0 0 0
SMALL
GASTEIGER

@<TRIPOS>ATOM
      1 O           5.1203   -2.7808    0.0000 O.3     1  UNL1       -0.3620
      2 O          11.7361    2.7705    0.0000 O.3     1  UNL1       -0.3620
      3 O           5.4677   -0.8113    0.0000 O.3     1  UNL1       -0.3714
      4 O           9.7361    2.7705    0.0000 O.3     1  UNL1       -0.3714
      5 O           4.7016   -0.1684    0.0000 O.3     1  UNL1       -0.3864
      6 O           9.2361    3.6365    0.0000 O.3     1  UNL1       -0.3864
      7 O           2.8222   -0.8525    0.0000 O.3     1  UNL1       -0.3865
      8 O          10.2361    5.3686    0.0000 O.3     1  UNL1       -0.3865
      9 O           2.4749   -2.8220    0.0000 O.3     1  UNL1       -0.3865
     10 O          12.2361    5.3686    0.0000 O.3     1  UNL1       -0.3865
     11 O           6.6984    0.7466    0.0000 O.3     1  UNL1       -0.3882
     12 O           6.2337    0.0781    0.0000 O.2     1  UNL1       -0.2886
     13 O           8.5041    1.9045    0.0000 O.2     1  UNL1       -0.2886
     14 O           8.6228    1.2308    0.0000 O.3     1  UNL1       -0.3865
     15 O           8.9693   -2.4440    0.0000 O.2     1  UNL1       -0.5055
     16 O          10.2361   -1.0955    0.0000 O.2     1  UNL1       -0.5055
     17 O           5.9329   -3.1597    0.0000 O.2     1  UNL1       -0.2881
     18 O          11.9682    1.9045    0.0000 O.2     1  UNL1       -0.2881
     19 O           3.0673   -4.4496    0.0000 O.3     1  UNL1       -0.3924
     20 O          13.7361    4.5026    0.0000 O.3     1  UNL1       -0.3924
     21 O           5.9323    1.7054    0.0000 O.3     1  UNL1       -0.3865
     22 O           7.9853    3.3741    0.0000 O.3     1  UNL1       -0.3869
     23 O           7.2598   -4.2730    0.0000 O.2     1  UNL1       -0.5059
     24 O          12.8342    0.4045    0.0000 O.2     1  UNL1       -0.5059
     25 O           6.4532    4.6597    0.0000 O.3     1  UNL1       -0.3924
     26 O          10.8983    0.8441    0.0000 O.3     1  UNL1       -0.5068
     27 O          12.8342   -5.5955    0.0000 O.3     1  UNL1       -0.5068
     28 C           5.2940   -1.7960    0.0000 C.3     1  UNL1        0.1307
     29 C          10.7361    2.7705    0.0000 C.3     1  UNL1        0.1307
     30 C           6.2337   -1.4540    0.0000 C.3     1  UNL1        0.2192
     31 C          10.2361    1.9045    0.0000 C.3     1  UNL1        0.2192
     32 C           8.5041   -0.0955    0.0000 C.3     1  UNL1        0.0515
     33 C           4.5280   -1.1533    0.0000 C.3     1  UNL1        0.1132
     34 C          10.2361    3.6365    0.0000 C.3     1  UNL1        0.1132
     35 C           3.5883   -1.4953    0.0000 C.3     1  UNL1        0.1119
     36 C          10.7361    4.5026    0.0000 C.3     1  UNL1        0.1119
     37 C           7.8613   -0.8616    0.0000 C.2     1  UNL1        0.0508
     38 C           9.3701    0.4045    0.0000 C.2     1  UNL1        0.0508
     39 C           3.4146   -2.4800    0.0000 C.3     1  UNL1        0.1117
     40 C          11.7361    4.5026    0.0000 C.3     1  UNL1        0.1117
     41 C           4.1806   -3.1228    0.0000 C.3     1  UNL1        0.1105
     42 C          12.2361    3.6365    0.0000 C.3     1  UNL1        0.1105
     43 C           7.6380    0.4045    0.0000 C.3     1  UNL1        0.0948
     44 C           6.8765   -0.6880    0.0000 C.2     1  UNL1        0.2051
     45 C           9.3701    1.4045    0.0000 C.2     1  UNL1        0.2051
     46 C           6.5757   -2.3936    0.0000 C.2     1  UNL1        0.2119
     47 C          11.1021    1.4045    0.0000 C.2     1  UNL1        0.2119
     48 C           7.6380    1.4045    0.0000 C.3     1  UNL1        0.1102
     49 C           8.2033   -1.8013    0.0000 C.2     1  UNL1        0.1382
     50 C          10.2361   -0.0955    0.0000 C.2     1  UNL1        0.1382
     51 C           7.5605   -2.5673    0.0000 C.2     1  UNL1        0.1039
     52 C          11.1021    0.4045    0.0000 C.2     1  UNL1        0.1039
     53 C           4.0070   -4.1076    0.0000 C.3     1  UNL1        0.0729
     54 C          13.2361    3.6365    0.0000 C.3     1  UNL1        0.0729
     55 C           6.8720    2.0473    0.0000 C.3     1  UNL1        0.1114
     56 C           7.0456    3.0321    0.0000 C.3     1  UNL1        0.1065
     57 C           7.9025   -3.5070    0.0000 C.2     1  UNL1        0.1310
     58 C          11.9682   -0.0955    0.0000 C.2     1  UNL1        0.1310
     59 C           6.2796    3.6749    0.0000 C.3     1  UNL1        0.0727
     60 C           8.8873   -3.6806    0.0000 C.2     1  UNL1       -0.0188
     61 C          11.9682   -1.0955    0.0000 C.2     1  UNL1       -0.0188
     62 C           9.5301   -2.9146    0.0000 C.2     1  UNL1       -0.0511
     63 C          12.8342   -1.5955    0.0000 C.2     1  UNL1       -0.0511
     64 C           9.8722   -1.9749    0.0000 C.ar    1  UNL1       -0.0247
     65 C          12.8342   -2.5955    0.0000 C.ar    1  UNL1       -0.0247
     66 C           9.2294   -1.2088    0.0000 C.ar    1  UNL1       -0.0511
     67 C          10.8570   -1.8013    0.0000 C.ar    1  UNL1       -0.0511
     68 C          13.7002   -3.0955    0.0000 C.ar    1  UNL1       -0.0511
     69 C          11.9682   -3.0955    0.0000 C.ar    1  UNL1       -0.0511
     70 C           9.5714   -0.2692    0.0000 C.ar    1  UNL1       -0.0196
     71 C          11.1990   -0.8616    0.0000 C.ar    1  UNL1       -0.0196
     72 C          13.7002   -4.0955    0.0000 C.ar    1  UNL1       -0.0196
     73 C          11.9682   -4.0955    0.0000 C.ar    1  UNL1       -0.0196
     74 C          10.5563   -0.0956    0.0000 C.ar    1  UNL1        0.1169
     75 C          12.8342   -4.5955    0.0000 C.ar    1  UNL1        0.1169
     76 H           5.7689   -2.1945    0.0000 H       1  UNL1        0.0661
     77 H          11.0461    2.2336    0.0000 H       1  UNL1        0.0661
     78 H           8.5041    0.5245    0.0000 H       1  UNL1        0.0428
     79 H           5.1106   -0.9412    0.0000 H       1  UNL1        0.0647
     80 H           9.9261    3.0996    0.0000 H       1  UNL1        0.0647
     81 H           3.6959   -0.8847    0.0000 H       1  UNL1        0.0647
     82 H          10.1161    4.5026    0.0000 H       1  UNL1        0.0647
     83 H           2.9397   -2.0815    0.0000 H       1  UNL1        0.0647
     84 H          11.4261    5.0395    0.0000 H       1  UNL1        0.0647
     85 H           4.6556   -3.5213    0.0000 H       1  UNL1        0.0646
     86 H          12.5461    3.0996    0.0000 H       1  UNL1        0.0646
     87 H           7.3760   -0.1574    0.0000 H       1  UNL1        0.0629
     88 H           7.9001    1.9664    0.0000 H       1  UNL1        0.0646
     89 H           4.1147   -4.7182    0.0000 H       1  UNL1        0.0584
     90 H           4.6270   -4.1076    0.0000 H       1  UNL1        0.0584
     91 H          13.1285    3.0260    0.0000 H       1  UNL1        0.0584
     92 H          13.8187    3.4245    0.0000 H       1  UNL1        0.0584
     93 H           6.7643    1.4367    0.0000 H       1  UNL1        0.0647
     94 H           5.5753   -0.2007    0.0000 H       1  UNL1        0.2114
     95 H           9.1161    2.7705    0.0000 H       1  UNL1        0.2114
     96 H           4.2266    0.2301    0.0000 H       1  UNL1        0.2100
     97 H           8.9261    4.1735    0.0000 H       1  UNL1        0.2100
     98 H           2.2396   -1.0646    0.0000 H       1  UNL1        0.2100
     99 H          10.5461    5.9055    0.0000 H       1  UNL1        0.2100
    100 H           2.0000   -2.4236    0.0000 H       1  UNL1        0.2100
    101 H          11.9261    5.9055    0.0000 H       1  UNL1        0.2100
    102 H           6.4863    1.3291    0.0000 H       1  UNL1        0.2099
    103 H           7.5206    2.6336    0.0000 H       1  UNL1        0.0643
    104 H           8.5152    0.6203    0.0000 H       1  UNL1        0.2100
    105 H           8.8617   -3.0546    0.0000 H       1  UNL1        0.2922
    106 H           9.6992   -1.4055    0.0000 H       1  UNL1        0.2922
    107 H           2.9596   -5.0602    0.0000 H       1  UNL1        0.2095
    108 H          14.3561    4.5026    0.0000 H       1  UNL1        0.2095
    109 H           5.6970    3.8869    0.0000 H       1  UNL1        0.0584
    110 H           5.9696    3.1379    0.0000 H       1  UNL1        0.0584
    111 H           5.4574    2.1038    0.0000 H       1  UNL1        0.2100
    112 H           9.0994   -4.2632    0.0000 H       1  UNL1        0.0654
    113 H          11.4932   -1.4940    0.0000 H       1  UNL1        0.0654
    114 H           8.0930    3.9847    0.0000 H       1  UNL1        0.2100
    115 H           7.4718   -4.8556    0.0000 H       1  UNL1        0.2922
    116 H          13.3711    0.0945    0.0000 H       1  UNL1        0.2922
    117 H          10.1407   -3.0223    0.0000 H       1  UNL1        0.0625
    118 H          13.3711   -1.2855    0.0000 H       1  UNL1        0.0625
    119 H           5.9783    5.0582    0.0000 H       1  UNL1        0.2095
    120 H           8.6188   -1.3165    0.0000 H       1  UNL1        0.0625
    121 H          11.2555   -2.2762    0.0000 H       1  UNL1        0.0625
    122 H          14.2372   -2.7855    0.0000 H       1  UNL1        0.0625
    123 H          11.4312   -2.7855    0.0000 H       1  UNL1        0.0625
    124 H           9.1729    0.2058    0.0000 H       1  UNL1        0.0654
    125 H          11.8096   -0.7539    0.0000 H       1  UNL1        0.0654
    126 H          14.2372   -4.4055    0.0000 H       1  UNL1        0.0654
    127 H          11.4312   -4.4055    0.0000 H       1  UNL1        0.0654
    128 H          11.5088    0.9518    0.0000 H       1  UNL1        0.2921
    129 H          13.3711   -5.9055    0.0000 H       1  UNL1        0.2921
@<TRIPOS>BOND
     1     1    28    1
     2     1    41    1
     3     2    29    1
     4     2    42    1
     5     3    30    1
     6     3    94    1
     7     4    31    1
     8     4    95    1
     9     5    33    1
    10     5    96    1
    11     6    34    1
    12     6    97    1
    13     7    35    1
    14     7    98    1
    15     8    36    1
    16     8    99    1
    17     9    39    1
    18     9   100    1
    19    10    40    1
    20    10   101    1
    21    11    43    1
    22    11   102    1
    23    12    44    2
    24    13    45    2
    25    14    48    1
    26    14   104    1
    27    15    49    1
    28    15   105    1
    29    16    50    1
    30    16   106    1
    31    17    46    2
    32    18    47    2
    33    19    53    1
    34    19   107    1
    35    20    54    1
    36    20   108    1
    37    21    55    1
    38    21   111    1
    39    22    56    1
    40    22   114    1
    41    23    57    1
    42    23   115    1
    43    24    58    1
    44    24   116    1
    45    25    59    1
    46    25   119    1
    47    26    74    1
    48    26   128    1
    49    27    75    1
    50    27   129    1
    51    28    30    1
    52    28    33    1
    53    28    76    1
    54    29    31    1
    55    29    34    1
    56    29    77    1
    57    30    44    1
    58    30    46    1
    59    31    45    1
    60    31    47    1
    61    32    37    1
    62    32    38    1
    63    32    43    1
    64    32    78    1
    65    33    35    1
    66    33    79    1
    67    34    36    1
    68    34    80    1
    69    35    39    1
    70    35    81    1
    71    36    40    1
    72    36    82    1
    73    37    44    1
    74    37    49    2
    75    38    45    1
    76    38    50    2
    77    39    41    1
    78    39    83    1
    79    40    42    1
    80    40    84    1
    81    41    53    1
    82    41    85    1
    83    42    54    1
    84    42    86    1
    85    43    48    1
    86    43    87    1
    87    46    51    1
    88    47    52    1
    89    48    55    1
    90    48    88    1
    91    49    51    1
    92    50    52    1
    93    51    57    2
    94    52    58    2
    95    53    89    1
    96    53    90    1
    97    54    91    1
    98    54    92    1
    99    55    56    1
   100    55    93    1
   101    56    59    1
   102    56   103    1
   103    57    60    1
   104    58    61    1
   105    59   109    1
   106    59   110    1
   107    60    62    2
   108    60   112    1
   109    61    63    2
   110    61   113    1
   111    62    64    1
   112    62   117    1
   113    63    65    1
   114    63   118    1
   115    64    66   ar
   116    64    67   ar
   117    65    68   ar
   118    65    69   ar
   119    66    70   ar
   120    66   120    1
   121    67    71   ar
   122    67   121    1
   123    68    72   ar
   124    68   122    1
   125    69    73   ar
   126    69   123    1
   127    70    74   ar
   128    70   124    1
   129    71    74   ar
   130    71   125    1
   131    72    75   ar
   132    72   126    1
   133    73    75   ar
   134    73   127    1
