@<TRIPOS>MOLECULE
IMPHY015450
 40 40 0 0 0
SMALL
GASTEIGER

@<TRIPOS>ATOM
      1 O           6.3301    1.7500    0.0000 O.2     1  UNL1       -0.2965
      2 O           2.0000   -0.7500    0.0000 O.3     1  UNL1       -0.3869
      3 C           5.4641    3.2500    0.0000 C.3     1  UNL1        0.0209
      4 C           5.4641    2.2500    0.0000 C.2     1  UNL1        0.1423
      5 C           5.4641    4.2500    0.0000 C.3     1  UNL1       -0.0533
      6 C           6.4641    3.2500    0.0000 C.3     1  UNL1       -0.0533
      7 C           4.4641    3.2500    0.0000 C.3     1  UNL1       -0.0533
      8 C           4.5981    1.7500    0.0000 C.3     1  UNL1        0.0245
      9 C           2.8660   -1.2500    0.0000 C.3     1  UNL1        0.0836
     10 C           3.7320   -0.7500    0.0000 C.3     1  UNL1       -0.0044
     11 C           4.5981    0.7500    0.0000 C.2     1  UNL1       -0.0808
     12 C           3.7320    0.2500    0.0000 C.2     1  UNL1       -0.0848
     13 C           2.8660   -2.2500    0.0000 C.ar    1  UNL1       -0.0189
     14 C           2.0000   -2.7500    0.0000 C.ar    1  UNL1       -0.0561
     15 C           3.7320   -2.7500    0.0000 C.ar    1  UNL1       -0.0561
     16 C           2.0000   -3.7500    0.0000 C.ar    1  UNL1       -0.0614
     17 C           3.7320   -3.7500    0.0000 C.ar    1  UNL1       -0.0614
     18 C           2.8660   -4.2500    0.0000 C.ar    1  UNL1       -0.0617
     19 H           6.0841    4.2500    0.0000 H       1  UNL1        0.0239
     20 H           5.4641    4.8700    0.0000 H       1  UNL1        0.0239
     21 H           4.8441    4.2500    0.0000 H       1  UNL1        0.0239
     22 H           6.4641    2.6300    0.0000 H       1  UNL1        0.0239
     23 H           7.0841    3.2500    0.0000 H       1  UNL1        0.0239
     24 H           6.4641    3.8700    0.0000 H       1  UNL1        0.0239
     25 H           4.4641    3.8700    0.0000 H       1  UNL1        0.0239
     26 H           3.8441    3.2500    0.0000 H       1  UNL1        0.0239
     27 H           4.4641    2.6300    0.0000 H       1  UNL1        0.0239
     28 H           4.3860    2.3326    0.0000 H       1  UNL1        0.0384
     29 H           3.9875    1.6423    0.0000 H       1  UNL1        0.0384
     30 H           2.8660   -0.6300    0.0000 H       1  UNL1        0.0646
     31 H           3.9441   -1.3326    0.0000 H       1  UNL1        0.0336
     32 H           4.3426   -0.6423    0.0000 H       1  UNL1        0.0336
     33 H           5.1350    0.4400    0.0000 H       1  UNL1        0.0573
     34 H           3.1951    0.5600    0.0000 H       1  UNL1        0.0570
     35 H           1.4631   -2.4400    0.0000 H       1  UNL1        0.0621
     36 H           4.2690   -2.4400    0.0000 H       1  UNL1        0.0621
     37 H           2.0000   -0.1300    0.0000 H       1  UNL1        0.2102
     38 H           1.4631   -4.0600    0.0000 H       1  UNL1        0.0618
     39 H           4.2690   -4.0600    0.0000 H       1  UNL1        0.0618
     40 H           2.8660   -4.8700    0.0000 H       1  UNL1        0.0618
@<TRIPOS>BOND
     1     1     4    2
     2     2     9    1
     3     2    37    1
     4     3     4    1
     5     3     5    1
     6     3     6    1
     7     3     7    1
     8     4     8    1
     9     5    19    1
    10     5    20    1
    11     5    21    1
    12     6    22    1
    13     6    23    1
    14     6    24    1
    15     7    25    1
    16     7    26    1
    17     7    27    1
    18     8    11    1
    19     8    28    1
    20     8    29    1
    21     9    10    1
    22     9    13    1
    23     9    30    1
    24    10    12    1
    25    10    31    1
    26    10    32    1
    27    11    12    2
    28    11    33    1
    29    12    34    1
    30    13    14   ar
    31    13    15   ar
    32    14    16   ar
    33    14    35    1
    34    15    17   ar
    35    15    36    1
    36    16    18   ar
    37    16    38    1
    38    17    18   ar
    39    17    39    1
    40    18    40    1
