@<TRIPOS>MOLECULE
IMPHY008238
 125 130 0 0 0
SMALL
GASTEIGER

@<TRIPOS>ATOM
      1 O           6.8671   -2.8649    0.0000 O.3     1  UNL1       -0.3449
      2 O           7.1728    5.7170    0.0000 O.3     1  UNL1       -0.3886
      3 O           5.1600    0.2971    0.0000 O.2     1  UNL1       -0.3004
      4 O           5.1350   -2.8649    0.0000 O.3     1  UNL1       -0.3405
      5 O           6.8671   -4.8649    0.0000 O.3     1  UNL1       -0.3378
      6 O           5.1350   -5.8649    0.0000 O.3     1  UNL1       -0.3864
      7 O           3.4030   -4.8649    0.0000 O.3     1  UNL1       -0.3865
      8 O           6.0010   -6.3649    0.0000 O.3     1  UNL1       -0.3405
      9 O           2.5369   -3.3649    0.0000 O.3     1  UNL1       -0.3924
     10 O           8.5991   -5.8649    0.0000 O.3     1  UNL1       -0.3841
     11 O           8.5991   -7.8649    0.0000 O.3     1  UNL1       -0.3864
     12 O           6.8671   -8.8649    0.0000 O.3     1  UNL1       -0.3865
     13 O           4.2690   -7.3649    0.0000 O.3     1  UNL1       -0.3924
     14 C           7.7681    1.8353    0.0000 C.3     1  UNL1       -0.0227
     15 C           7.7643    2.8353    0.0000 C.3     1  UNL1       -0.0232
     16 C           6.9040    1.3320    0.0000 C.3     1  UNL1       -0.0228
     17 C           6.8963    3.3320    0.0000 C.3     1  UNL1       -0.0297
     18 C           6.8920    0.2904    0.0000 C.3     1  UNL1        0.0327
     19 C           7.7920   -0.2339    0.0000 C.3     1  UNL1       -0.0212
     20 C           8.6801    1.3320    0.0000 C.3     1  UNL1       -0.0465
     21 C           7.1018    4.3046    0.0000 C.3     1  UNL1       -0.0090
     22 C           6.0361    1.8286    0.0000 C.3     1  UNL1       -0.0485
     23 C           8.4987    3.5052    0.0000 C.3     1  UNL1       -0.0465
     24 C           6.0322    2.8286    0.0000 C.3     1  UNL1       -0.0491
     25 C           8.6921    0.2904    0.0000 C.3     1  UNL1       -0.0482
     26 C           7.8046   -1.3188    0.0000 C.3     1  UNL1       -0.0048
     27 C           8.0901    4.4114    0.0000 C.3     1  UNL1       -0.0468
     28 C           5.9421   -0.2339    0.0000 C.3     1  UNL1       -0.0380
     29 C           8.7522    2.0128    0.0000 C.3     1  UNL1       -0.0588
     30 C           8.7497    2.6655    0.0000 C.3     1  UNL1       -0.0588
     31 C           6.8671   -1.8649    0.0000 C.3     1  UNL1        0.0672
     32 C           6.4311    5.0463    0.0000 C.3     1  UNL1        0.0667
     33 C           5.9295   -1.3188    0.0000 C.3     1  UNL1       -0.0251
     34 C           6.0279    0.7938    0.0000 C.2     1  UNL1        0.1270
     35 C           8.8046   -1.3111    0.0000 C.3     1  UNL1       -0.0572
     36 C           8.3113   -2.1809    0.0000 C.3     1  UNL1       -0.0572
     37 C           5.7604    5.7880    0.0000 C.3     1  UNL1       -0.0206
     38 C           5.6894    4.3756    0.0000 C.3     1  UNL1       -0.0358
     39 C           6.0674    6.7397    0.0000 C.3     1  UNL1       -0.0319
     40 C           6.0010   -3.3649    0.0000 C.3     1  UNL1        0.1886
     41 C           6.0010   -4.3649    0.0000 C.3     1  UNL1        0.1406
     42 C           5.3966    7.4815    0.0000 C.2     1  UNL1       -0.0852
     43 C           5.1350   -4.8649    0.0000 C.3     1  UNL1        0.1144
     44 C           4.2690   -3.3649    0.0000 C.3     1  UNL1        0.1130
     45 C           4.2690   -4.3649    0.0000 C.3     1  UNL1        0.1119
     46 C           5.7036    8.4332    0.0000 C.2     1  UNL1       -0.0796
     47 C           3.4030   -2.8649    0.0000 C.3     1  UNL1        0.0730
     48 C           6.8671   -5.8649    0.0000 C.3     1  UNL1        0.1885
     49 C           5.0329    9.1749    0.0000 C.3     1  UNL1       -0.0440
     50 C           6.6814    8.6432    0.0000 C.3     1  UNL1       -0.0440
     51 C           7.7331   -6.3649    0.0000 C.3     1  UNL1        0.1341
     52 C           7.7331   -7.3649    0.0000 C.3     1  UNL1        0.1141
     53 C           6.0010   -7.3649    0.0000 C.3     1  UNL1        0.1130
     54 C           6.8671   -7.8649    0.0000 C.3     1  UNL1        0.1119
     55 C           5.1350   -7.8649    0.0000 C.3     1  UNL1        0.0730
     56 H           7.6385    0.9042    0.0000 H       1  UNL1        0.0316
     57 H           6.2074    3.8298    0.0000 H       1  UNL1        0.0310
     58 H           8.5314   -0.6532    0.0000 H       1  UNL1        0.0316
     59 H           9.2921    1.2330    0.0000 H       1  UNL1        0.0271
     60 H           8.8824    1.9181    0.0000 H       1  UNL1        0.0271
     61 H           7.4044    5.0989    0.0000 H       1  UNL1        0.0331
     62 H           5.4251    1.9340    0.0000 H       1  UNL1        0.0268
     63 H           5.8263    1.2452    0.0000 H       1  UNL1        0.0268
     64 H           8.8661    3.0058    0.0000 H       1  UNL1        0.0271
     65 H           9.0340    3.8181    0.0000 H       1  UNL1        0.0271
     66 H           5.8179    3.4104    0.0000 H       1  UNL1        0.0268
     67 H           5.4221    2.7186    0.0000 H       1  UNL1        0.0268
     68 H           8.9079   -0.2908    0.0000 H       1  UNL1        0.0269
     69 H           9.3017    0.4036    0.0000 H       1  UNL1        0.0269
     70 H           8.6790    4.6055    0.0000 H       1  UNL1        0.0269
     71 H           7.9590    5.0174    0.0000 H       1  UNL1        0.0269
     72 H           5.7398    0.3522    0.0000 H       1  UNL1        0.0276
     73 H           5.3300   -0.3329    0.0000 H       1  UNL1        0.0276
     74 H           8.8623    1.4026    0.0000 H       1  UNL1        0.0235
     75 H           9.3624    2.1228    0.0000 H       1  UNL1        0.0235
     76 H           8.6422    2.6229    0.0000 H       1  UNL1        0.0235
     77 H           8.6444    2.0545    0.0000 H       1  UNL1        0.0235
     78 H           9.3607    2.5602    0.0000 H       1  UNL1        0.0235
     79 H           8.8550    3.2765    0.0000 H       1  UNL1        0.0235
     80 H           7.4046   -2.1739    0.0000 H       1  UNL1        0.0602
     81 H           5.3199   -1.2056    0.0000 H       1  UNL1        0.0291
     82 H           5.7137   -1.9000    0.0000 H       1  UNL1        0.0291
     83 H           5.4922    1.1058    0.0000 H       1  UNL1        0.1032
     84 H           8.8094   -1.9311    0.0000 H       1  UNL1        0.0236
     85 H           9.4246   -1.3063    0.0000 H       1  UNL1        0.0236
     86 H           8.7998   -0.6911    0.0000 H       1  UNL1        0.0236
     87 H           7.7767   -2.4951    0.0000 H       1  UNL1        0.0236
     88 H           8.6254   -2.7155    0.0000 H       1  UNL1        0.0236
     89 H           8.8458   -1.8668    0.0000 H       1  UNL1        0.0236
     90 H           5.2123    6.0779    0.0000 H       1  UNL1        0.0296
     91 H           5.3797    5.2987    0.0000 H       1  UNL1        0.0296
     92 H           5.2735    4.8355    0.0000 H       1  UNL1        0.0257
     93 H           5.2295    3.9598    0.0000 H       1  UNL1        0.0257
     94 H           6.1052    3.9157    0.0000 H       1  UNL1        0.0257
     95 H           7.0426    6.3232    0.0000 H       1  UNL1        0.2102
     96 H           6.6154    6.4498    0.0000 H       1  UNL1        0.0308
     97 H           6.4480    7.2291    0.0000 H       1  UNL1        0.0308
     98 H           6.5380   -3.6749    0.0000 H       1  UNL1        0.0938
     99 H           6.0010   -4.9849    0.0000 H       1  UNL1        0.0675
    100 H           4.7905    7.3513    0.0000 H       1  UNL1        0.0571
    101 H           4.5981   -5.1749    0.0000 H       1  UNL1        0.0648
    102 H           4.2690   -2.7449    0.0000 H       1  UNL1        0.0647
    103 H           3.7320   -4.0549    0.0000 H       1  UNL1        0.0647
    104 H           3.8015   -2.3899    0.0000 H       1  UNL1        0.0584
    105 H           3.0044   -2.3899    0.0000 H       1  UNL1        0.0584
    106 H           7.4040   -5.5549    0.0000 H       1  UNL1        0.0938
    107 H           4.5981   -6.1749    0.0000 H       1  UNL1        0.2100
    108 H           3.4030   -5.4849    0.0000 H       1  UNL1        0.2100
    109 H           5.4928    9.5907    0.0000 H       1  UNL1        0.0274
    110 H           4.6171    9.6348    0.0000 H       1  UNL1        0.0274
    111 H           4.5731    8.7591    0.0000 H       1  UNL1        0.0274
    112 H           6.8116    8.0370    0.0000 H       1  UNL1        0.0274
    113 H           7.2875    8.7734    0.0000 H       1  UNL1        0.0274
    114 H           6.5512    9.2493    0.0000 H       1  UNL1        0.0274
    115 H           8.2700   -6.6749    0.0000 H       1  UNL1        0.0671
    116 H           2.0000   -3.0549    0.0000 H       1  UNL1        0.2095
    117 H           7.7331   -7.9849    0.0000 H       1  UNL1        0.0648
    118 H           5.4641   -7.0549    0.0000 H       1  UNL1        0.0647
    119 H           6.3301   -8.1749    0.0000 H       1  UNL1        0.0647
    120 H           8.5991   -5.2449    0.0000 H       1  UNL1        0.2101
    121 H           4.7365   -8.3398    0.0000 H       1  UNL1        0.0584
    122 H           5.5335   -8.3398    0.0000 H       1  UNL1        0.0584
    123 H           8.5991   -8.4849    0.0000 H       1  UNL1        0.2100
    124 H           6.3301   -9.1749    0.0000 H       1  UNL1        0.2100
    125 H           3.7320   -7.6749    0.0000 H       1  UNL1        0.2095
@<TRIPOS>BOND
     1    31     1    1
     2    40     1    1
     3    32     2    1
     4     2    95    1
     5     3    34    2
     6     4    40    1
     7     4    44    1
     8    41     5    1
     9    48     5    1
    10    43     6    1
    11     6   107    1
    12    45     7    1
    13     7   108    1
    14     8    48    1
    15     8    53    1
    16     9    47    1
    17     9   116    1
    18    51    10    1
    19    10   120    1
    20    52    11    1
    21    11   123    1
    22    54    12    1
    23    12   124    1
    24    13    55    1
    25    13   125    1
    26    14    15    1
    27    14    16    1
    28    14    20    1
    29    14    29    1
    30    15    17    1
    31    15    23    1
    32    15    30    1
    33    16    18    1
    34    16    22    1
    35    16    56    1
    36    17    21    1
    37    17    24    1
    38    17    57    1
    39    18    19    1
    40    18    28    1
    41    18    34    1
    42    19    25    1
    43    19    26    1
    44    19    58    1
    45    20    25    1
    46    20    59    1
    47    20    60    1
    48    21    27    1
    49    21    32    1
    50    21    61    1
    51    22    24    1
    52    22    62    1
    53    22    63    1
    54    23    27    1
    55    23    64    1
    56    23    65    1
    57    24    66    1
    58    24    67    1
    59    25    68    1
    60    25    69    1
    61    26    31    1
    62    26    35    1
    63    26    36    1
    64    27    70    1
    65    27    71    1
    66    28    33    1
    67    28    72    1
    68    28    73    1
    69    29    74    1
    70    29    75    1
    71    29    76    1
    72    30    77    1
    73    30    78    1
    74    30    79    1
    75    31    33    1
    76    31    80    1
    77    32    37    1
    78    32    38    1
    79    33    81    1
    80    33    82    1
    81    34    83    1
    82    35    84    1
    83    35    85    1
    84    35    86    1
    85    36    87    1
    86    36    88    1
    87    36    89    1
    88    37    39    1
    89    37    90    1
    90    37    91    1
    91    38    92    1
    92    38    93    1
    93    38    94    1
    94    39    42    1
    95    39    96    1
    96    39    97    1
    97    40    41    1
    98    40    98    1
    99    41    43    1
   100    41    99    1
   101    42    46    2
   102    42   100    1
   103    43    45    1
   104    43   101    1
   105    44    45    1
   106    44    47    1
   107    44   102    1
   108    45   103    1
   109    46    49    1
   110    46    50    1
   111    47   104    1
   112    47   105    1
   113    48    51    1
   114    48   106    1
   115    49   109    1
   116    49   110    1
   117    49   111    1
   118    50   112    1
   119    50   113    1
   120    50   114    1
   121    51    52    1
   122    51   115    1
   123    52    54    1
   124    52   117    1
   125    53    54    1
   126    53    55    1
   127    53   118    1
   128    54   119    1
   129    55   121    1
   130    55   122    1
