@<TRIPOS>MOLECULE
IMPHY010923
 50 54 0 0 0
SMALL
GASTEIGER

@<TRIPOS>ATOM
      1 O           7.3092    0.7953    0.0000 O.3     1  UNL1       -0.4518
      2 O           7.3092    2.4048    0.0000 O.3     1  UNL1       -0.4489
      3 O           5.4969    3.6000    0.0000 O.3     1  UNL1       -0.4910
      4 O           5.5501   -3.5967    0.0000 O.3     1  UNL1       -0.4914
      5 O           7.3534   -2.5369    0.0000 O.3     1  UNL1       -0.4914
      6 N           2.8816    1.1214    0.0000 N.3     1  UNL1       -0.2978
      7 C           3.7209    0.5932    0.0000 C.3     1  UNL1        0.0404
      8 C           4.6309    1.1000    0.0000 C.ar    1  UNL1       -0.0119
      9 C           3.7129   -0.4484    0.0000 C.3     1  UNL1       -0.0072
     10 C           4.6309    2.1000    0.0000 C.ar    1  UNL1        0.0046
     11 C           5.4969    0.6000    0.0000 C.ar    1  UNL1        0.0331
     12 C           2.9072    2.1128    0.0000 C.3     1  UNL1        0.0033
     13 C           3.7727    2.5970    0.0000 C.3     1  UNL1       -0.0109
     14 C           4.6149   -0.9692    0.0000 C.ar    1  UNL1       -0.0341
     15 C           5.5130   -0.4415    0.0000 C.ar    1  UNL1       -0.0070
     16 C           6.3629    1.1000    0.0000 C.ar    1  UNL1        0.1779
     17 C           5.4969    2.6000    0.0000 C.ar    1  UNL1        0.1688
     18 C           6.3629    2.1000    0.0000 C.ar    1  UNL1        0.2084
     19 C           2.0000    0.6494    0.0000 C.3     1  UNL1       -0.0122
     20 C           4.6066   -2.0542    0.0000 C.ar    1  UNL1       -0.0125
     21 C           6.4649   -0.9621    0.0000 C.ar    1  UNL1       -0.0082
     22 C           5.5462   -2.5967    0.0000 C.ar    1  UNL1        0.1618
     23 C           6.4816   -2.0470    0.0000 C.ar    1  UNL1        0.1621
     24 C           7.8928    1.6000    0.0000 C.3     1  UNL1        0.2334
     25 C           6.3629    4.1000    0.0000 C.3     1  UNL1        0.0790
     26 C           4.6860   -4.1000    0.0000 C.3     1  UNL1        0.0790
     27 C           7.3649   -3.5369    0.0000 C.3     1  UNL1        0.0790
     28 H           2.9752    0.1852    0.0000 H       1  UNL1        0.0516
     29 H           3.1028   -0.3376    0.0000 H       1  UNL1        0.0332
     30 H           3.4993   -1.0305    0.0000 H       1  UNL1        0.0332
     31 H           2.7054    2.6990    0.0000 H       1  UNL1        0.0430
     32 H           2.2944    2.0184    0.0000 H       1  UNL1        0.0430
     33 H           4.1737    3.0698    0.0000 H       1  UNL1        0.0327
     34 H           3.3786    3.0756    0.0000 H       1  UNL1        0.0327
     35 H           1.7073    1.1959    0.0000 H       1  UNL1        0.0391
     36 H           1.4534    0.3567    0.0000 H       1  UNL1        0.0391
     37 H           2.2927    0.1028    0.0000 H       1  UNL1        0.0391
     38 H           4.0684   -2.3621    0.0000 H       1  UNL1        0.0658
     39 H           6.9958   -0.6418    0.0000 H       1  UNL1        0.0661
     40 H           8.3536    1.1853    0.0000 H       1  UNL1        0.1166
     41 H           8.3536    2.0148    0.0000 H       1  UNL1        0.1166
     42 H           6.6729    3.5631    0.0000 H       1  UNL1        0.0660
     43 H           6.8999    4.4100    0.0000 H       1  UNL1        0.0660
     44 H           6.0529    4.6370    0.0000 H       1  UNL1        0.0660
     45 H           4.3739   -3.5643    0.0000 H       1  UNL1        0.0660
     46 H           4.1502   -4.4121    0.0000 H       1  UNL1        0.0660
     47 H           4.9980   -4.6358    0.0000 H       1  UNL1        0.0660
     48 H           6.7450   -3.5440    0.0000 H       1  UNL1        0.0660
     49 H           7.3721   -4.1568    0.0000 H       1  UNL1        0.0660
     50 H           7.9849   -3.5297    0.0000 H       1  UNL1        0.0660
@<TRIPOS>BOND
     1     1    16    1
     2     1    24    1
     3     2    18    1
     4     2    24    1
     5     3    17    1
     6     3    25    1
     7     4    22    1
     8     4    26    1
     9     5    23    1
    10     5    27    1
    11     6     7    1
    12     6    12    1
    13     6    19    1
    14     7     8    1
    15     7     9    1
    16     7    28    1
    17     8    10   ar
    18     8    11   ar
    19     9    14    1
    20     9    29    1
    21     9    30    1
    22    10    13    1
    23    10    17   ar
    24    11    15    1
    25    11    16   ar
    26    12    13    1
    27    12    31    1
    28    12    32    1
    29    13    33    1
    30    13    34    1
    31    14    15   ar
    32    14    20   ar
    33    15    21   ar
    34    16    18   ar
    35    17    18   ar
    36    19    35    1
    37    19    36    1
    38    19    37    1
    39    20    22   ar
    40    20    38    1
    41    21    23   ar
    42    21    39    1
    43    22    23   ar
    44    24    40    1
    45    24    41    1
    46    25    42    1
    47    25    43    1
    48    25    44    1
    49    26    45    1
    50    26    46    1
    51    26    47    1
    52    27    48    1
    53    27    49    1
    54    27    50    1
