@<TRIPOS>MOLECULE
IMPHY008166
 17 17 0 0 0
SMALL
GASTEIGER

@<TRIPOS>ATOM
      1 O           3.7601   -1.1739    0.0000 O.3     1  UNL1       -0.4515
      2 O           2.6723    1.1739    0.0000 O.2     1  UNL1       -0.5010
      3 O           2.0000   -0.8952    0.0000 O.2     1  UNL1       -0.2415
      4 C           4.5691   -0.5861    0.0000 C.3     1  UNL1        0.1254
      5 C           4.2601    0.3649    0.0000 C.2     1  UNL1        0.0156
      6 C           3.2601    0.3649    0.0000 C.2     1  UNL1        0.2043
      7 C           5.5202   -0.8952    0.0000 C.3     1  UNL1       -0.0236
      8 C           4.8479    1.1739    0.0000 C.3     1  UNL1       -0.0363
      9 C           2.9511   -0.5861    0.0000 C.2     1  UNL1        0.3747
     10 H           4.6661   -1.1985    0.0000 H       1  UNL1        0.0780
     11 H           5.3286   -1.4848    0.0000 H       1  UNL1        0.0268
     12 H           6.1098   -1.0868    0.0000 H       1  UNL1        0.0268
     13 H           5.7117   -0.3055    0.0000 H       1  UNL1        0.0268
     14 H           5.3494    0.8095    0.0000 H       1  UNL1        0.0277
     15 H           5.2123    1.6755    0.0000 H       1  UNL1        0.0277
     16 H           4.3463    1.5384    0.0000 H       1  UNL1        0.0277
     17 H           2.0557    1.1091    0.0000 H       1  UNL1        0.2924
@<TRIPOS>BOND
     1     1     4    1
     2     1     9    1
     3     2     6    1
     4     2    17    1
     5     3     9    2
     6     4     5    1
     7     4     7    1
     8     4    10    1
     9     5     6    2
    10     5     8    1
    11     6     9    1
    12     7    11    1
    13     7    12    1
    14     7    13    1
    15     8    14    1
    16     8    15    1
    17     8    16    1
