@<TRIPOS>MOLECULE
IMPHY002450
 45 46 0 0 0
SMALL
GASTEIGER

@<TRIPOS>ATOM
      1 O           6.2058   -1.7447    0.0000 O.3     1  UNL1       -0.4565
      2 O           3.7508   -0.7060    0.0000 O.3     1  UNL1       -0.4608
      3 O           7.7894   -0.9400    0.0000 O.2     1  UNL1       -0.2505
      4 O           2.1231   -1.2982    0.0000 O.2     1  UNL1       -0.2512
      5 C           5.2596   -0.4400    0.0000 C.3     1  UNL1        0.0498
      6 C           6.2058   -0.1353    0.0000 C.3     1  UNL1        0.0635
      7 C           5.2596   -1.4400    0.0000 C.3     1  UNL1        0.1284
      8 C           4.3936    0.0600    0.0000 C.3     1  UNL1        0.1139
      9 C           4.3936    1.0600    0.0000 C.3     1  UNL1        0.0057
     10 C           6.7894   -0.9400    0.0000 C.2     1  UNL1        0.3110
     11 C           6.5165    0.8153    0.0000 C.3     1  UNL1       -0.0518
     12 C           4.3936   -1.9400    0.0000 C.2     1  UNL1       -0.0446
     13 C           3.5276    1.5600    0.0000 C.2     1  UNL1       -0.0730
     14 C           3.5276   -1.4400    0.0000 C.2     1  UNL1       -0.0728
     15 C           3.5276   -0.4400    0.0000 C.3     1  UNL1       -0.0284
     16 C           2.6616    0.0600    0.0000 C.3     1  UNL1       -0.0308
     17 C           2.6616    1.0600    0.0000 C.2     1  UNL1       -0.0846
     18 C           3.5276    2.5600    0.0000 C.3     1  UNL1       -0.0437
     19 C           2.6616   -1.9400    0.0000 C.3     1  UNL1       -0.0437
     20 C           2.7660   -0.5323    0.0000 C.2     1  UNL1        0.3042
     21 C           2.0000    0.1106    0.0000 C.3     1  UNL1        0.0332
     22 H           5.3496    0.4052    0.0000 H       1  UNL1        0.0384
     23 H           6.8183   -0.0391    0.0000 H       1  UNL1        0.0416
     24 H           5.3496   -2.2852    0.0000 H       1  UNL1        0.0783
     25 H           3.8110    0.2721    0.0000 H       1  UNL1        0.0741
     26 H           5.0042    0.9523    0.0000 H       1  UNL1        0.0346
     27 H           4.6056    1.6426    0.0000 H       1  UNL1        0.0346
     28 H           7.1058    0.6226    0.0000 H       1  UNL1        0.0238
     29 H           6.7091    1.4046    0.0000 H       1  UNL1        0.0238
     30 H           5.9272    1.0079    0.0000 H       1  UNL1        0.0238
     31 H           4.3936   -2.5600    0.0000 H       1  UNL1        0.0608
     32 H           4.1382   -0.5477    0.0000 H       1  UNL1        0.0313
     33 H           3.7396    0.1426    0.0000 H       1  UNL1        0.0313
     34 H           2.0510    0.1677    0.0000 H       1  UNL1        0.0310
     35 H           2.4495   -0.5226    0.0000 H       1  UNL1        0.0310
     36 H           2.1246    1.3700    0.0000 H       1  UNL1        0.0572
     37 H           4.1476    2.5600    0.0000 H       1  UNL1        0.0274
     38 H           3.5276    3.1800    0.0000 H       1  UNL1        0.0274
     39 H           2.9076    2.5600    0.0000 H       1  UNL1        0.0274
     40 H           2.3516   -1.4031    0.0000 H       1  UNL1        0.0274
     41 H           2.1246   -2.2500    0.0000 H       1  UNL1        0.0274
     42 H           2.9716   -2.4769    0.0000 H       1  UNL1        0.0274
     43 H           2.3986    0.5855    0.0000 H       1  UNL1        0.0342
     44 H           1.5251    0.5092    0.0000 H       1  UNL1        0.0342
     45 H           1.6014   -0.3643    0.0000 H       1  UNL1        0.0342
@<TRIPOS>BOND
     1     1     7    1
     2     1    10    1
     3     8     2    1
     4     2    20    1
     5     3    10    2
     6     4    20    2
     7     5     6    1
     8     5     7    1
     9     5     8    1
    10     5    22    1
    11     6    10    1
    12     6    11    1
    13     6    23    1
    14     7    12    1
    15     7    24    1
    16     8     9    1
    17     8    25    1
    18     9    13    1
    19     9    26    1
    20     9    27    1
    21    11    28    1
    22    11    29    1
    23    11    30    1
    24    12    14    2
    25    12    31    1
    26    13    17    2
    27    13    18    1
    28    14    15    1
    29    14    19    1
    30    15    16    1
    31    15    32    1
    32    15    33    1
    33    16    17    1
    34    16    34    1
    35    16    35    1
    36    17    36    1
    37    18    37    1
    38    18    38    1
    39    18    39    1
    40    19    40    1
    41    19    41    1
    42    19    42    1
    43    20    21    1
    44    21    43    1
    45    21    44    1
    46    21    45    1
