@<TRIPOS>MOLECULE
IMPHY016315
 27 26 0 0 0
SMALL
GASTEIGER

@<TRIPOS>ATOM
      1 O           2.0000    0.7500    0.0000 O.2     1  UNL1       -0.2963
      2 C           8.0622    0.2500    0.0000 C.3     1  UNL1       -0.0433
      3 C           7.1962    0.7500    0.0000 C.3     1  UNL1       -0.0321
      4 C           8.9282    0.7500    0.0000 C.3     1  UNL1       -0.0624
      5 C           8.0622   -0.7500    0.0000 C.3     1  UNL1       -0.0624
      6 C           6.3301    0.2500    0.0000 C.2     1  UNL1       -0.0835
      7 C           5.4641    0.7500    0.0000 C.2     1  UNL1       -0.0627
      8 C           4.5981    0.2500    0.0000 C.2     1  UNL1       -0.0477
      9 C           4.5981   -0.7500    0.0000 C.3     1  UNL1       -0.0396
     10 C           3.7320    0.7500    0.0000 C.2     1  UNL1       -0.0195
     11 C           2.8660    0.2500    0.0000 C.2     1  UNL1        0.1433
     12 H           8.0622    0.8700    0.0000 H       1  UNL1        0.0298
     13 H           7.5947    1.2250    0.0000 H       1  UNL1        0.0310
     14 H           6.7976    1.2250    0.0000 H       1  UNL1        0.0310
     15 H           9.2382    0.2131    0.0000 H       1  UNL1        0.0232
     16 H           9.4651    1.0600    0.0000 H       1  UNL1        0.0232
     17 H           8.6182    1.2869    0.0000 H       1  UNL1        0.0232
     18 H           7.4422   -0.7500    0.0000 H       1  UNL1        0.0232
     19 H           8.0622   -1.3700    0.0000 H       1  UNL1        0.0232
     20 H           8.6822   -0.7500    0.0000 H       1  UNL1        0.0232
     21 H           6.3301   -0.3700    0.0000 H       1  UNL1        0.0572
     22 H           5.4641    1.3700    0.0000 H       1  UNL1        0.0617
     23 H           3.9781   -0.7500    0.0000 H       1  UNL1        0.0278
     24 H           4.5981   -1.3700    0.0000 H       1  UNL1        0.0278
     25 H           5.2181   -0.7500    0.0000 H       1  UNL1        0.0278
     26 H           3.7320    1.3700    0.0000 H       1  UNL1        0.0652
     27 H           2.8660   -0.3700    0.0000 H       1  UNL1        0.1075
@<TRIPOS>BOND
     1     1    11    2
     2     2     3    1
     3     2     4    1
     4     2     5    1
     5     2    12    1
     6     3     6    1
     7     3    13    1
     8     3    14    1
     9     4    15    1
    10     4    16    1
    11     4    17    1
    12     5    18    1
    13     5    19    1
    14     5    20    1
    15     6     7    2
    16     6    21    1
    17     7     8    1
    18     7    22    1
    19     8     9    1
    20     8    10    2
    21     9    23    1
    22     9    24    1
    23     9    25    1
    24    10    11    1
    25    10    26    1
    26    11    27    1
