@<TRIPOS>MOLECULE
IMPHY008622
 30 32 0 0 0
SMALL
GASTEIGER

@<TRIPOS>ATOM
      1 O           6.3617   -0.2429    0.0000 O.2     1  UNL1       -0.4622
      2 O           2.9042    1.7519    0.0000 O.2     1  UNL1       -0.2832
      3 O           4.6362    2.7519    0.0000 O.2     1  UNL1       -0.2834
      4 C           4.6362   -0.2481    0.0000 C.ar    1  UNL1        0.0363
      5 C           3.7702    0.2519    0.0000 C.ar    1  UNL1        0.0397
      6 C           4.6523   -1.2896    0.0000 C.ar    1  UNL1       -0.0079
      7 C           5.5022    0.2519    0.0000 C.2     1  UNL1        0.1426
      8 C           2.8602   -0.2550    0.0000 C.ar    1  UNL1       -0.0388
      9 C           5.5022    1.2519    0.0000 C.2     1  UNL1        0.0428
     10 C           5.5294   -1.7524    0.0000 C.2     1  UNL1       -0.0078
     11 C           3.7702    1.2519    0.0000 C.2     1  UNL1        0.2337
     12 C           3.7542   -1.8174    0.0000 C.ar    1  UNL1       -0.0533
     13 C           2.8522   -1.2966    0.0000 C.ar    1  UNL1       -0.0576
     14 C           4.6362    1.7519    0.0000 C.2     1  UNL1        0.2322
     15 C           6.3751   -1.2345    0.0000 C.2     1  UNL1        0.0959
     16 C           2.0000    0.2550    0.0000 C.3     1  UNL1       -0.0390
     17 C           6.3683    1.7519    0.0000 C.3     1  UNL1       -0.0324
     18 C           5.5614   -2.7519    0.0000 C.3     1  UNL1       -0.0362
     19 H           3.7566   -2.4374    0.0000 H       1  UNL1        0.0624
     20 H           2.3140   -1.6045    0.0000 H       1  UNL1        0.0621
     21 H           6.9181   -1.5339    0.0000 H       1  UNL1        0.1032
     22 H           2.3162    0.7883    0.0000 H       1  UNL1        0.0278
     23 H           1.4667    0.5712    0.0000 H       1  UNL1        0.0278
     24 H           1.6838   -0.2783    0.0000 H       1  UNL1        0.0278
     25 H           6.6783    1.2149    0.0000 H       1  UNL1        0.0280
     26 H           6.9052    2.0619    0.0000 H       1  UNL1        0.0280
     27 H           6.0583    2.2888    0.0000 H       1  UNL1        0.0280
     28 H           4.9417   -2.7717    0.0000 H       1  UNL1        0.0279
     29 H           5.5812   -3.3716    0.0000 H       1  UNL1        0.0279
     30 H           6.1810   -2.7320    0.0000 H       1  UNL1        0.0279
@<TRIPOS>BOND
     1     1     7    1
     2     1    15    1
     3     2    11    2
     4     3    14    2
     5     4     5   ar
     6     4     6   ar
     7     4     7    1
     8     5     8   ar
     9     5    11    1
    10     6    10    1
    11     6    12   ar
    12     7     9    2
    13     8    13   ar
    14     8    16    1
    15     9    14    1
    16     9    17    1
    17    10    15    2
    18    10    18    1
    19    11    14    1
    20    12    13   ar
    21    12    19    1
    22    13    20    1
    23    15    21    1
    24    16    22    1
    25    16    23    1
    26    16    24    1
    27    17    25    1
    28    17    26    1
    29    17    27    1
    30    18    28    1
    31    18    29    1
    32    18    30    1
