@<TRIPOS>MOLECULE
IMPHY015485
 26 27 0 0 0
SMALL
GASTEIGER

@<TRIPOS>ATOM
      1 O           5.4920   -1.0347    0.0000 O.3     1  UNL1       -0.4872
      2 O           2.0000   -1.0000    0.0000 O.3     1  UNL1       -0.4944
      3 C           4.5981    0.5000    0.0000 C.ar    1  UNL1        0.0173
      4 C           4.5981   -0.5000    0.0000 C.ar    1  UNL1        0.1316
      5 C           2.8660    0.5000    0.0000 C.ar    1  UNL1        0.0169
      6 C           3.7320    1.0000    0.0000 C.ar    1  UNL1       -0.0405
      7 C           2.8660   -0.5000    0.0000 C.ar    1  UNL1        0.1307
      8 C           3.7320   -1.0000    0.0000 C.ar    1  UNL1        0.0230
      9 C           5.4920    1.0347    0.0000 C.2     1  UNL1       -0.0518
     10 C           6.3981   -0.5208    0.0000 C.3     1  UNL1        0.1081
     11 C           6.3981    0.5208    0.0000 C.2     1  UNL1       -0.0465
     12 C           2.0000    1.0000    0.0000 C.2     1  UNL1       -0.0582
     13 C           2.0000   -2.0000    0.0000 C.3     1  UNL1        0.0788
     14 C           2.0000    2.0000    0.0000 C.2     1  UNL1       -0.0980
     15 H           3.7320    1.6200    0.0000 H       1  UNL1        0.0632
     16 H           3.7320   -1.6200    0.0000 H       1  UNL1        0.0691
     17 H           5.4848    1.6546    0.0000 H       1  UNL1        0.0623
     18 H           6.6071   -1.1045    0.0000 H       1  UNL1        0.0742
     19 H           7.0089   -0.4147    0.0000 H       1  UNL1        0.0742
     20 H           6.9338    0.8329    0.0000 H       1  UNL1        0.0606
     21 H           1.4631    0.6900    0.0000 H       1  UNL1        0.0619
     22 H           1.3800   -2.0000    0.0000 H       1  UNL1        0.0660
     23 H           2.0000   -2.6200    0.0000 H       1  UNL1        0.0660
     24 H           2.6200   -2.0000    0.0000 H       1  UNL1        0.0660
     25 H           2.5369    2.3100    0.0000 H       1  UNL1        0.0535
     26 H           1.4631    2.3100    0.0000 H       1  UNL1        0.0535
@<TRIPOS>BOND
     1     1     4    1
     2     1    10    1
     3     2     7    1
     4     2    13    1
     5     3     4   ar
     6     3     6   ar
     7     3     9    1
     8     4     8   ar
     9     5     6   ar
    10     5     7   ar
    11     5    12    1
    12     6    15    1
    13     7     8   ar
    14     8    16    1
    15     9    11    2
    16     9    17    1
    17    10    11    1
    18    10    18    1
    19    10    19    1
    20    11    20    1
    21    12    14    2
    22    12    21    1
    23    13    22    1
    24    13    23    1
    25    13    24    1
    26    14    25    1
    27    14    26    1
