@<TRIPOS>MOLECULE
IMPHY015508
 65 66 0 0 0
SMALL
GASTEIGER

@<TRIPOS>ATOM
      1 O           6.8828    1.5734    0.0000 O.3     1  UNL1       -0.4939
      2 O          10.3469    1.5734    0.0000 O.3     1  UNL1       -0.4939
      3 O           8.6148   -1.4266    0.0000 O.3     1  UNL1       -0.5060
      4 O           4.9132   -0.0793    0.0000 O.3     1  UNL1       -0.5055
      5 O           7.5668   -2.3060    0.0000 O.3     1  UNL1       -0.5060
      6 O           4.3117   -3.4908    0.0000 O.3     1  UNL1       -0.5056
      7 O           7.7488    3.0734    0.0000 O.2     1  UNL1       -0.2915
      8 O           3.2856   -0.6717    0.0000 O.2     1  UNL1       -0.2915
      9 C           6.8828   -0.4266    0.0000 C.3     1  UNL1        0.0115
     10 C           7.7488    0.0734    0.0000 C.ar    1  UNL1        0.0413
     11 C           6.2401   -1.1927    0.0000 C.ar    1  UNL1        0.0411
     12 C           7.7488    1.0734    0.0000 C.ar    1  UNL1        0.1410
     13 C           8.6148    1.5734    0.0000 C.ar    1  UNL1        0.1015
     14 C           8.6148   -0.4266    0.0000 C.ar    1  UNL1        0.1302
     15 C           9.4808    0.0734    0.0000 C.ar    1  UNL1        0.0337
     16 C           5.2552   -1.0190    0.0000 C.ar    1  UNL1        0.1378
     17 C           4.6124   -1.7851    0.0000 C.ar    1  UNL1        0.1011
     18 C           9.4808    1.0734    0.0000 C.ar    1  UNL1        0.1405
     19 C           6.5820   -2.1323    0.0000 C.ar    1  UNL1        0.1302
     20 C           9.4808    3.0734    0.0000 C.3     1  UNL1        0.0167
     21 C           5.9392   -2.8984    0.0000 C.ar    1  UNL1        0.0335
     22 C           8.6148    2.5734    0.0000 C.2     1  UNL1        0.1727
     23 C           4.9545   -2.7248    0.0000 C.ar    1  UNL1        0.1372
     24 C           2.9848   -2.3775    0.0000 C.3     1  UNL1        0.0167
     25 C           3.6276   -1.6114    0.0000 C.2     1  UNL1        0.1727
     26 C          10.3469   -0.4266    0.0000 C.3     1  UNL1       -0.0327
     27 C           9.4808    4.0734    0.0000 C.3     1  UNL1       -0.0556
     28 C          10.3469    2.5734    0.0000 C.3     1  UNL1       -0.0556
     29 C           6.2812   -3.8381    0.0000 C.3     1  UNL1       -0.0327
     30 C           2.0000   -2.2038    0.0000 C.3     1  UNL1       -0.0556
     31 C           3.3269   -3.3172    0.0000 C.3     1  UNL1       -0.0556
     32 C           6.0168    1.0734    0.0000 C.3     1  UNL1        0.0788
     33 C          11.2129    1.0734    0.0000 C.3     1  UNL1        0.0788
     34 H           6.8108    0.1892    0.0000 H       1  UNL1        0.0366
     35 H           7.2813   -0.9015    0.0000 H       1  UNL1        0.0366
     36 H          10.0178    3.3834    0.0000 H       1  UNL1        0.0375
     37 H           2.5863   -2.8524    0.0000 H       1  UNL1        0.0375
     38 H          10.0369   -0.9635    0.0000 H       1  UNL1        0.0280
     39 H          10.8838   -0.7366    0.0000 H       1  UNL1        0.0280
     40 H          10.6569    0.1103    0.0000 H       1  UNL1        0.0280
     41 H          10.1009    4.0734    0.0000 H       1  UNL1        0.0236
     42 H           9.4808    4.6934    0.0000 H       1  UNL1        0.0236
     43 H           8.8608    4.0734    0.0000 H       1  UNL1        0.0236
     44 H          10.0369    2.0365    0.0000 H       1  UNL1        0.0236
     45 H          10.8838    2.2634    0.0000 H       1  UNL1        0.0236
     46 H          10.6569    3.1103    0.0000 H       1  UNL1        0.0236
     47 H           5.6986   -4.0501    0.0000 H       1  UNL1        0.0280
     48 H           6.4933   -4.4207    0.0000 H       1  UNL1        0.0280
     49 H           6.8638   -3.6260    0.0000 H       1  UNL1        0.0280
     50 H           2.1077   -1.5932    0.0000 H       1  UNL1        0.0236
     51 H           1.3894   -2.0962    0.0000 H       1  UNL1        0.0236
     52 H           1.8923   -2.8144    0.0000 H       1  UNL1        0.0236
     53 H           2.7443   -3.5293    0.0000 H       1  UNL1        0.0236
     54 H           3.5389   -3.8998    0.0000 H       1  UNL1        0.0236
     55 H           3.9095   -3.1051    0.0000 H       1  UNL1        0.0236
     56 H           9.1518   -1.7366    0.0000 H       1  UNL1        0.2922
     57 H           5.3117    0.3957    0.0000 H       1  UNL1        0.2922
     58 H           7.9653   -1.8310    0.0000 H       1  UNL1        0.2922
     59 H           4.5237   -4.0734    0.0000 H       1  UNL1        0.2922
     60 H           5.7068    1.6103    0.0000 H       1  UNL1        0.0660
     61 H           5.4798    0.7634    0.0000 H       1  UNL1        0.0660
     62 H           6.3268    0.5365    0.0000 H       1  UNL1        0.0660
     63 H          10.9029    0.5365    0.0000 H       1  UNL1        0.0660
     64 H          11.7498    0.7634    0.0000 H       1  UNL1        0.0660
     65 H          11.5229    1.6103    0.0000 H       1  UNL1        0.0660
@<TRIPOS>BOND
     1     1    12    1
     2     1    32    1
     3     2    18    1
     4     2    33    1
     5     3    14    1
     6     3    56    1
     7     4    16    1
     8     4    57    1
     9     5    19    1
    10     5    58    1
    11     6    23    1
    12     6    59    1
    13     7    22    2
    14     8    25    2
    15     9    10    1
    16     9    11    1
    17     9    34    1
    18     9    35    1
    19    10    12   ar
    20    10    14   ar
    21    11    16   ar
    22    11    19   ar
    23    12    13   ar
    24    13    18   ar
    25    13    22    1
    26    14    15   ar
    27    15    18   ar
    28    15    26    1
    29    16    17   ar
    30    17    23   ar
    31    17    25    1
    32    19    21   ar
    33    20    22    1
    34    20    27    1
    35    20    28    1
    36    20    36    1
    37    21    23   ar
    38    21    29    1
    39    24    25    1
    40    24    30    1
    41    24    31    1
    42    24    37    1
    43    26    38    1
    44    26    39    1
    45    26    40    1
    46    27    41    1
    47    27    42    1
    48    27    43    1
    49    28    44    1
    50    28    45    1
    51    28    46    1
    52    29    47    1
    53    29    48    1
    54    29    49    1
    55    30    50    1
    56    30    51    1
    57    30    52    1
    58    31    53    1
    59    31    54    1
    60    31    55    1
    61    32    60    1
    62    32    61    1
    63    32    62    1
    64    33    63    1
    65    33    64    1
    66    33    65    1
