@<TRIPOS>MOLECULE
IMPHY008770
 86 85 0 0 0
SMALL
GASTEIGER

@<TRIPOS>ATOM
      1 O           3.7320    0.7500    0.0000 O.3     1  UNL1       -0.4649
      2 O           4.5981   -0.7500    0.0000 O.2     1  UNL1       -0.2509
      3 C          15.8564    0.7500    0.0000 C.3     1  UNL1       -0.0531
      4 C          14.9904    0.2500    0.0000 C.3     1  UNL1       -0.0531
      5 C          16.7224    0.2500    0.0000 C.3     1  UNL1       -0.0531
      6 C          14.1244    0.7500    0.0000 C.3     1  UNL1       -0.0531
      7 C          17.5885    0.7500    0.0000 C.3     1  UNL1       -0.0531
      8 C          13.2583    0.2500    0.0000 C.3     1  UNL1       -0.0531
      9 C          18.4545    0.2500    0.0000 C.3     1  UNL1       -0.0531
     10 C          12.3923    0.7500    0.0000 C.3     1  UNL1       -0.0531
     11 C          19.3205    0.7500    0.0000 C.3     1  UNL1       -0.0531
     12 C          11.5263    0.2500    0.0000 C.3     1  UNL1       -0.0531
     13 C          20.1865    0.2500    0.0000 C.3     1  UNL1       -0.0531
     14 C          10.6603    0.7500    0.0000 C.3     1  UNL1       -0.0531
     15 C          21.0526    0.7500    0.0000 C.3     1  UNL1       -0.0531
     16 C           9.7942    0.2500    0.0000 C.3     1  UNL1       -0.0531
     17 C          21.9186    0.2500    0.0000 C.3     1  UNL1       -0.0531
     18 C           8.9282    0.7500    0.0000 C.3     1  UNL1       -0.0531
     19 C          22.7846    0.7500    0.0000 C.3     1  UNL1       -0.0531
     20 C           8.0622    0.2500    0.0000 C.3     1  UNL1       -0.0530
     21 C          23.6506    0.2500    0.0000 C.3     1  UNL1       -0.0531
     22 C           7.1962    0.7500    0.0000 C.3     1  UNL1       -0.0526
     23 C          24.5167    0.7500    0.0000 C.3     1  UNL1       -0.0533
     24 C           6.3301    0.2500    0.0000 C.3     1  UNL1       -0.0430
     25 C          25.3827    0.2500    0.0000 C.3     1  UNL1       -0.0559
     26 C           5.4641    0.7500    0.0000 C.3     1  UNL1        0.0449
     27 C          26.2487    0.7500    0.0000 C.3     1  UNL1       -0.0653
     28 C           4.5981    0.2500    0.0000 C.2     1  UNL1        0.3071
     29 C           2.8660    0.2500    0.0000 C.3     1  UNL1        0.0896
     30 C           2.0000    0.7500    0.0000 C.3     1  UNL1       -0.0306
     31 H          16.2549    1.2250    0.0000 H       1  UNL1        0.0265
     32 H          15.4579    1.2250    0.0000 H       1  UNL1        0.0265
     33 H          14.5919   -0.2249    0.0000 H       1  UNL1        0.0265
     34 H          15.3889   -0.2249    0.0000 H       1  UNL1        0.0265
     35 H          16.3239   -0.2249    0.0000 H       1  UNL1        0.0265
     36 H          17.1210   -0.2249    0.0000 H       1  UNL1        0.0265
     37 H          14.5229    1.2250    0.0000 H       1  UNL1        0.0265
     38 H          13.7258    1.2250    0.0000 H       1  UNL1        0.0265
     39 H          17.9870    1.2250    0.0000 H       1  UNL1        0.0265
     40 H          17.1899    1.2250    0.0000 H       1  UNL1        0.0265
     41 H          12.8598   -0.2249    0.0000 H       1  UNL1        0.0265
     42 H          13.6569   -0.2249    0.0000 H       1  UNL1        0.0265
     43 H          18.0560   -0.2249    0.0000 H       1  UNL1        0.0265
     44 H          18.8530   -0.2249    0.0000 H       1  UNL1        0.0265
     45 H          12.7908    1.2250    0.0000 H       1  UNL1        0.0265
     46 H          11.9938    1.2250    0.0000 H       1  UNL1        0.0265
     47 H          19.7190    1.2250    0.0000 H       1  UNL1        0.0265
     48 H          18.9220    1.2250    0.0000 H       1  UNL1        0.0265
     49 H          11.1278   -0.2249    0.0000 H       1  UNL1        0.0265
     50 H          11.9248   -0.2249    0.0000 H       1  UNL1        0.0265
     51 H          19.7880   -0.2249    0.0000 H       1  UNL1        0.0265
     52 H          20.5851   -0.2249    0.0000 H       1  UNL1        0.0265
     53 H          11.0588    1.2250    0.0000 H       1  UNL1        0.0265
     54 H          10.2617    1.2250    0.0000 H       1  UNL1        0.0265
     55 H          21.4511    1.2250    0.0000 H       1  UNL1        0.0265
     56 H          20.6540    1.2250    0.0000 H       1  UNL1        0.0265
     57 H           9.3957   -0.2249    0.0000 H       1  UNL1        0.0265
     58 H          10.1928   -0.2249    0.0000 H       1  UNL1        0.0265
     59 H          21.5201   -0.2249    0.0000 H       1  UNL1        0.0265
     60 H          22.3171   -0.2249    0.0000 H       1  UNL1        0.0265
     61 H           9.3267    1.2250    0.0000 H       1  UNL1        0.0265
     62 H           8.5297    1.2250    0.0000 H       1  UNL1        0.0265
     63 H          23.1831    1.2250    0.0000 H       1  UNL1        0.0265
     64 H          22.3861    1.2250    0.0000 H       1  UNL1        0.0265
     65 H           7.6636   -0.2249    0.0000 H       1  UNL1        0.0265
     66 H           8.4607   -0.2249    0.0000 H       1  UNL1        0.0265
     67 H          23.2521   -0.2249    0.0000 H       1  UNL1        0.0265
     68 H          24.0492   -0.2249    0.0000 H       1  UNL1        0.0265
     69 H           7.5947    1.2250    0.0000 H       1  UNL1        0.0265
     70 H           6.7976    1.2250    0.0000 H       1  UNL1        0.0265
     71 H          24.9152    1.2250    0.0000 H       1  UNL1        0.0265
     72 H          24.1181    1.2250    0.0000 H       1  UNL1        0.0265
     73 H           5.9316   -0.2249    0.0000 H       1  UNL1        0.0270
     74 H           6.7287   -0.2249    0.0000 H       1  UNL1        0.0270
     75 H          24.9842   -0.2249    0.0000 H       1  UNL1        0.0263
     76 H          25.7812   -0.2249    0.0000 H       1  UNL1        0.0263
     77 H           5.8626    1.2250    0.0000 H       1  UNL1        0.0377
     78 H           5.0656    1.2250    0.0000 H       1  UNL1        0.0377
     79 H          26.5587    0.2131    0.0000 H       1  UNL1        0.0230
     80 H          26.7856    1.0600    0.0000 H       1  UNL1        0.0230
     81 H          25.9387    1.2869    0.0000 H       1  UNL1        0.0230
     82 H           2.4675   -0.2249    0.0000 H       1  UNL1        0.0694
     83 H           3.2646   -0.2249    0.0000 H       1  UNL1        0.0694
     84 H           2.3100    1.2869    0.0000 H       1  UNL1        0.0262
     85 H           1.4631    1.0600    0.0000 H       1  UNL1        0.0262
     86 H           1.6900    0.2131    0.0000 H       1  UNL1        0.0262
@<TRIPOS>BOND
     1     1    28    1
     2     1    29    1
     3     2    28    2
     4     3     4    1
     5     3     5    1
     6     3    31    1
     7     3    32    1
     8     4     6    1
     9     4    33    1
    10     4    34    1
    11     5     7    1
    12     5    35    1
    13     5    36    1
    14     6     8    1
    15     6    37    1
    16     6    38    1
    17     7     9    1
    18     7    39    1
    19     7    40    1
    20     8    10    1
    21     8    41    1
    22     8    42    1
    23     9    11    1
    24     9    43    1
    25     9    44    1
    26    10    12    1
    27    10    45    1
    28    10    46    1
    29    11    13    1
    30    11    47    1
    31    11    48    1
    32    12    14    1
    33    12    49    1
    34    12    50    1
    35    13    15    1
    36    13    51    1
    37    13    52    1
    38    14    16    1
    39    14    53    1
    40    14    54    1
    41    15    17    1
    42    15    55    1
    43    15    56    1
    44    16    18    1
    45    16    57    1
    46    16    58    1
    47    17    19    1
    48    17    59    1
    49    17    60    1
    50    18    20    1
    51    18    61    1
    52    18    62    1
    53    19    21    1
    54    19    63    1
    55    19    64    1
    56    20    22    1
    57    20    65    1
    58    20    66    1
    59    21    23    1
    60    21    67    1
    61    21    68    1
    62    22    24    1
    63    22    69    1
    64    22    70    1
    65    23    25    1
    66    23    71    1
    67    23    72    1
    68    24    26    1
    69    24    73    1
    70    24    74    1
    71    25    27    1
    72    25    75    1
    73    25    76    1
    74    26    28    1
    75    26    77    1
    76    26    78    1
    77    27    79    1
    78    27    80    1
    79    27    81    1
    80    29    30    1
    81    29    82    1
    82    29    83    1
    83    30    84    1
    84    30    85    1
    85    30    86    1
