@<TRIPOS>MOLECULE
IMPHY000020
 43 46 0 0 0
SMALL
GASTEIGER

@<TRIPOS>ATOM
      1 O           8.1912   -3.3982    0.0000 O.2     1  UNL1       -0.2702
      2 O           2.5381   -2.6671    0.0000 O.3     1  UNL1       -0.4914
      3 O           2.5381   -0.6188    0.0000 O.3     1  UNL1       -0.5033
      4 O           7.8003    2.3571    0.0000 O.3     1  UNL1       -0.4914
      5 O           6.0682    3.3571    0.0000 O.3     1  UNL1       -0.5033
      6 N           8.4641   -1.6429    0.0000 N.am    1  UNL1       -0.3072
      7 C           6.9343   -1.1429    0.0000 C.ar    1  UNL1       -0.0099
      8 C           6.0682   -0.6429    0.0000 C.ar    1  UNL1       -0.0046
      9 C           6.9343   -2.1429    0.0000 C.ar    1  UNL1        0.0425
     10 C           5.2022   -1.1429    0.0000 C.ar    1  UNL1       -0.0061
     11 C           7.8805   -0.8382    0.0000 C.3     1  UNL1        0.0385
     12 C           5.2022   -2.1429    0.0000 C.ar    1  UNL1       -0.0129
     13 C           6.0682   -2.6429    0.0000 C.ar    1  UNL1       -0.0414
     14 C           6.0682    0.3571    0.0000 C.ar    1  UNL1       -0.0133
     15 C           7.8805   -2.4477    0.0000 C.2     1  UNL1        0.2447
     16 C           4.3083   -0.6083    0.0000 C.ar    1  UNL1       -0.0082
     17 C           4.3083   -2.6776    0.0000 C.ar    1  UNL1       -0.0086
     18 C           3.4022   -1.1221    0.0000 C.ar    1  UNL1        0.1591
     19 C           3.4022   -2.1637    0.0000 C.ar    1  UNL1        0.1619
     20 C           6.9343    0.8571    0.0000 C.ar    1  UNL1       -0.0086
     21 C           5.2022    0.8571    0.0000 C.ar    1  UNL1       -0.0503
     22 C           6.9343    1.8571    0.0000 C.ar    1  UNL1        0.1618
     23 C           5.2022    1.8571    0.0000 C.ar    1  UNL1       -0.0159
     24 C           6.0682    2.3571    0.0000 C.ar    1  UNL1        0.1585
     25 C           2.5420   -3.6671    0.0000 C.3     1  UNL1        0.0790
     26 C           7.8003    3.3571    0.0000 C.3     1  UNL1        0.0790
     27 H           8.4179   -0.5290    0.0000 H       1  UNL1        0.0512
     28 H           7.6295   -0.2713    0.0000 H       1  UNL1        0.0512
     29 H           6.0682   -3.2629    0.0000 H       1  UNL1        0.0631
     30 H           9.0841   -1.6429    0.0000 H       1  UNL1        0.1493
     31 H           4.3154    0.0117    0.0000 H       1  UNL1        0.0661
     32 H           4.3154   -3.2976    0.0000 H       1  UNL1        0.0661
     33 H           7.4712    0.5471    0.0000 H       1  UNL1        0.0661
     34 H           4.6653    0.5471    0.0000 H       1  UNL1        0.0625
     35 H           4.6653    2.1671    0.0000 H       1  UNL1        0.0655
     36 H           2.0000   -0.9267    0.0000 H       1  UNL1        0.2923
     37 H           1.9220   -3.6695    0.0000 H       1  UNL1        0.0660
     38 H           2.5444   -4.2871    0.0000 H       1  UNL1        0.0660
     39 H           3.1620   -3.6647    0.0000 H       1  UNL1        0.0660
     40 H           5.5313    3.6671    0.0000 H       1  UNL1        0.2923
     41 H           8.4203    3.3571    0.0000 H       1  UNL1        0.0660
     42 H           7.8003    3.9771    0.0000 H       1  UNL1        0.0660
     43 H           7.1803    3.3571    0.0000 H       1  UNL1        0.0660
@<TRIPOS>BOND
     1     1    15    2
     2     2    19    1
     3     2    25    1
     4     3    18    1
     5     3    36    1
     6     4    22    1
     7     4    26    1
     8     5    24    1
     9     5    40    1
    10     6    11    1
    11     6    15   am
    12     6    30    1
    13     7     8   ar
    14     7     9   ar
    15     7    11    1
    16     8    10   ar
    17     8    14    1
    18     9    13   ar
    19     9    15    1
    20    10    12   ar
    21    10    16   ar
    22    11    27    1
    23    11    28    1
    24    12    13   ar
    25    12    17   ar
    26    13    29    1
    27    14    20   ar
    28    14    21   ar
    29    16    18   ar
    30    16    31    1
    31    17    19   ar
    32    17    32    1
    33    18    19   ar
    34    20    22   ar
    35    20    33    1
    36    21    23   ar
    37    21    34    1
    38    22    24   ar
    39    23    24   ar
    40    23    35    1
    41    25    37    1
    42    25    38    1
    43    25    39    1
    44    26    41    1
    45    26    42    1
    46    26    43    1
