@<TRIPOS>MOLECULE
IMPHY002775
 80 86 0 0 0
SMALL
GASTEIGER

@<TRIPOS>ATOM
      1 O           6.3104    1.6646    0.0000 O.3     1  UNL1       -0.4482
      2 O           8.0070    3.5908    0.0000 O.3     1  UNL1       -0.4913
      3 O           6.2749    2.5908    0.0000 O.3     1  UNL1       -0.5009
      4 O           5.3467   -4.0908    0.0000 O.3     1  UNL1       -0.4523
      5 O           5.0893    0.4387    0.0000 O.3     1  UNL1       -0.4914
      6 O           4.7142   -3.2083    0.0000 O.3     1  UNL1       -0.4914
      7 N           8.8890   -0.9785    0.0000 N.3     1  UNL1       -0.2977
      8 N           3.0172   -0.6212    0.0000 N.2     1  UNL1       -0.2870
      9 C           7.9909   -0.4507    0.0000 C.3     1  UNL1        0.0432
     10 C           8.0070    0.5908    0.0000 C.ar    1  UNL1        0.0193
     11 C           9.7910   -0.4577    0.0000 C.3     1  UNL1        0.0032
     12 C           9.7830    0.5839    0.0000 C.3     1  UNL1       -0.0143
     13 C           8.8730    1.0908    0.0000 C.ar    1  UNL1       -0.0343
     14 C           8.0329   -1.4594    0.0000 C.3     1  UNL1       -0.0076
     15 C           7.1410    1.0908    0.0000 C.ar    1  UNL1        0.1784
     16 C           8.8851   -1.9785    0.0000 C.3     1  UNL1       -0.0122
     17 C           8.8730    2.0908    0.0000 C.ar    1  UNL1       -0.0125
     18 C           7.7410   -2.4257    0.0000 C.ar    1  UNL1       -0.0419
     19 C           7.1410    2.0908    0.0000 C.ar    1  UNL1        0.2020
     20 C           8.0070    2.5908    0.0000 C.ar    1  UNL1        0.1653
     21 C           7.1477   -3.2425    0.0000 C.ar    1  UNL1       -0.0124
     22 C           6.9652   -1.7890    0.0000 C.ar    1  UNL1       -0.0548
     23 C           5.3374    1.9335    0.0000 C.ar    1  UNL1        0.1703
     24 C           3.4002    1.4744    0.0000 C.ar    1  UNL1       -0.0331
     25 C           6.3189   -3.8188    0.0000 C.ar    1  UNL1        0.1701
     26 C           2.6514    0.7974    0.0000 C.ar    1  UNL1        0.0031
     27 C           4.3300    1.8677    0.0000 C.ar    1  UNL1       -0.0118
     28 C           4.1161    0.7709    0.0000 C.3     1  UNL1       -0.0074
     29 C           6.0027   -2.0737    0.0000 C.ar    1  UNL1       -0.0160
     30 C           4.5686    1.2925    0.0000 C.ar    1  UNL1        0.1627
     31 C           2.1667   -0.0882    0.0000 C.2     1  UNL1        0.0477
     32 C           5.6982   -3.0301    0.0000 C.ar    1  UNL1        0.1621
     33 C           3.6468    0.9025    0.0000 C.ar    1  UNL1       -0.0072
     34 C           3.9356   -0.2164    0.0000 C.3     1  UNL1        0.0440
     35 C           2.0000   -1.0838    0.0000 C.3     1  UNL1        0.0150
     36 C           2.1698   -2.0789    0.0000 C.ar    1  UNL1       -0.0414
     37 C           8.8730    4.0908    0.0000 C.3     1  UNL1        0.0790
     38 C           4.3391   -4.0281    0.0000 C.ar    1  UNL1        0.1286
     39 C           3.0766   -2.5026    0.0000 C.ar    1  UNL1       -0.0547
     40 C           2.6572   -2.9630    0.0000 C.ar    1  UNL1       -0.0547
     41 C           3.8212   -3.1716    0.0000 C.ar    1  UNL1       -0.0191
     42 C           3.4082   -3.6377    0.0000 C.ar    1  UNL1       -0.0191
     43 C           6.0890    0.4627    0.0000 C.3     1  UNL1        0.0790
     44 C           4.0679   -2.4453    0.0000 C.3     1  UNL1        0.0790
     45 H           7.1410   -0.4618    0.0000 H       1  UNL1        0.0516
     46 H          10.0046   -1.0397    0.0000 H       1  UNL1        0.0430
     47 H          10.4011   -0.3469    0.0000 H       1  UNL1        0.0430
     48 H          10.3947    0.4826    0.0000 H       1  UNL1        0.0326
     49 H           9.9876    1.1692    0.0000 H       1  UNL1        0.0326
     50 H           8.5049   -1.8613    0.0000 H       1  UNL1        0.0332
     51 H           7.4178   -1.3815    0.0000 H       1  UNL1        0.0332
     52 H           8.2651   -1.9761    0.0000 H       1  UNL1        0.0391
     53 H           8.8827   -2.5985    0.0000 H       1  UNL1        0.0391
     54 H           9.5051   -1.9809    0.0000 H       1  UNL1        0.0391
     55 H           9.4099    2.4008    0.0000 H       1  UNL1        0.0658
     56 H           7.5815   -3.6854    0.0000 H       1  UNL1        0.0658
     57 H           7.0882   -1.1813    0.0000 H       1  UNL1        0.0621
     58 H           4.1870    2.4709    0.0000 H       1  UNL1        0.0658
     59 H           4.6920    0.5412    0.0000 H       1  UNL1        0.0331
     60 H           4.4549    1.2901    0.0000 H       1  UNL1        0.0331
     61 H           5.5689   -1.6308    0.0000 H       1  UNL1        0.0655
     62 H           6.2749    3.2108    0.0000 H       1  UNL1        0.2924
     63 H           3.8018    0.3022    0.0000 H       1  UNL1        0.0662
     64 H           4.0688   -0.8220    0.0000 H       1  UNL1        0.0511
     65 H           4.5555   -0.2054    0.0000 H       1  UNL1        0.0511
     66 H           1.4807   -0.7451    0.0000 H       1  UNL1        0.0377
     67 H           2.6200   -1.0829    0.0000 H       1  UNL1        0.0377
     68 H           9.1830    3.5538    0.0000 H       1  UNL1        0.0660
     69 H           9.4099    4.4008    0.0000 H       1  UNL1        0.0660
     70 H           8.5630    4.6277    0.0000 H       1  UNL1        0.0660
     71 H           3.4187   -1.9856    0.0000 H       1  UNL1        0.0622
     72 H           2.1718   -3.3486    0.0000 H       1  UNL1        0.0622
     73 H           4.2988   -2.7763    0.0000 H       1  UNL1        0.0654
     74 H           3.0764   -4.1615    0.0000 H       1  UNL1        0.0654
     75 H           6.1039   -0.1571    0.0000 H       1  UNL1        0.0660
     76 H           6.7088    0.4776    0.0000 H       1  UNL1        0.0660
     77 H           6.0741    1.0825    0.0000 H       1  UNL1        0.0660
     78 H           4.5410   -2.0446    0.0000 H       1  UNL1        0.0660
     79 H           3.6671   -1.9722    0.0000 H       1  UNL1        0.0660
     80 H           3.5948   -2.8460    0.0000 H       1  UNL1        0.0660
@<TRIPOS>BOND
     1     1    15    1
     2     1    23    1
     3     2    20    1
     4     2    37    1
     5     3    19    1
     6     3    62    1
     7     4    25    1
     8     4    38    1
     9     5    30    1
    10     5    43    1
    11     6    32    1
    12     6    44    1
    13     7     9    1
    14     7    11    1
    15     7    16    1
    16     8    31    2
    17     8    34    1
    18     9    10    1
    19     9    14    1
    20     9    45    1
    21    10    13   ar
    22    10    15   ar
    23    11    12    1
    24    11    46    1
    25    11    47    1
    26    12    13    1
    27    12    48    1
    28    12    49    1
    29    13    17   ar
    30    14    18    1
    31    14    50    1
    32    14    51    1
    33    15    19   ar
    34    16    52    1
    35    16    53    1
    36    16    54    1
    37    17    20   ar
    38    17    55    1
    39    18    21   ar
    40    18    22   ar
    41    19    20   ar
    42    21    25   ar
    43    21    56    1
    44    22    29   ar
    45    22    57    1
    46    23    27   ar
    47    23    30   ar
    48    24    26   ar
    49    24    27   ar
    50    24    28    1
    51    25    32   ar
    52    26    31    1
    53    26    33   ar
    54    27    58    1
    55    28    34    1
    56    28    59    1
    57    28    60    1
    58    29    32   ar
    59    29    61    1
    60    30    33   ar
    61    31    35    1
    62    33    63    1
    63    34    64    1
    64    34    65    1
    65    35    36    1
    66    35    66    1
    67    35    67    1
    68    36    39   ar
    69    36    40   ar
    70    37    68    1
    71    37    69    1
    72    37    70    1
    73    38    41   ar
    74    38    42   ar
    75    39    41   ar
    76    39    71    1
    77    40    42   ar
    78    40    72    1
    79    41    73    1
    80    42    74    1
    81    43    75    1
    82    43    76    1
    83    43    77    1
    84    44    78    1
    85    44    79    1
    86    44    80    1
