@<TRIPOS>MOLECULE
IMPHY008093
 50 52 0 0 0
SMALL
GASTEIGER

@<TRIPOS>ATOM
      1 O           5.1350   -2.7500    0.0000 O.3     1  UNL1       -0.3313
      2 O           3.4030   -4.7500    0.0000 O.3     1  UNL1       -0.3865
      3 O           5.1350   -5.7500    0.0000 O.3     1  UNL1       -0.3864
      4 O           6.8671   -2.7500    0.0000 O.3     1  UNL1       -0.4505
      5 O           6.8671   -4.7500    0.0000 O.3     1  UNL1       -0.3829
      6 O           2.5369   -3.2500    0.0000 O.3     1  UNL1       -0.3924
      7 O           6.0010   -0.2500    0.0000 O.2     1  UNL1       -0.4200
      8 O           8.5991   -1.7500    0.0000 O.3     1  UNL1       -0.5031
      9 O           5.1350   -1.7500    0.0000 O.2     1  UNL1       -0.2409
     10 O           9.4651    4.7500    0.0000 O.3     1  UNL1       -0.5033
     11 O           7.7331    5.7500    0.0000 O.3     1  UNL1       -0.5033
     12 C           4.2690   -4.2500    0.0000 C.3     1  UNL1        0.1120
     13 C           5.1350   -4.7500    0.0000 C.3     1  UNL1        0.1152
     14 C           4.2690   -3.2500    0.0000 C.3     1  UNL1        0.1140
     15 C           6.0010   -4.2500    0.0000 C.3     1  UNL1        0.1454
     16 C           6.0010   -3.2500    0.0000 C.3     1  UNL1        0.2313
     17 C           3.4030   -2.7500    0.0000 C.3     1  UNL1        0.0731
     18 C           6.8671   -1.7500    0.0000 C.ar    1  UNL1        0.2496
     19 C           7.7331   -1.2500    0.0000 C.ar    1  UNL1        0.1694
     20 C           6.0010   -1.2500    0.0000 C.ar    1  UNL1        0.3833
     21 C           7.7331   -0.2500    0.0000 C.ar    1  UNL1        0.0262
     22 C           6.8671    0.2500    0.0000 C.ar    1  UNL1        0.1357
     23 C           6.8671    1.2500    0.0000 C.2     1  UNL1       -0.0185
     24 C           7.7331    1.7500    0.0000 C.2     1  UNL1       -0.0510
     25 C           7.7331    2.7500    0.0000 C.ar    1  UNL1       -0.0212
     26 C           8.5991    3.2500    0.0000 C.ar    1  UNL1       -0.0094
     27 C           6.8671    3.2500    0.0000 C.ar    1  UNL1       -0.0509
     28 C           8.5991    4.2500    0.0000 C.ar    1  UNL1        0.1588
     29 C           6.8671    4.2500    0.0000 C.ar    1  UNL1       -0.0160
     30 C           7.7331    4.7500    0.0000 C.ar    1  UNL1        0.1582
     31 H           4.2690   -4.8700    0.0000 H       1  UNL1        0.0647
     32 H           5.6720   -5.0600    0.0000 H       1  UNL1        0.0648
     33 H           4.2690   -2.6300    0.0000 H       1  UNL1        0.0647
     34 H           6.5380   -3.9400    0.0000 H       1  UNL1        0.0683
     35 H           6.0010   -2.6300    0.0000 H       1  UNL1        0.1084
     36 H           3.8015   -2.2750    0.0000 H       1  UNL1        0.0584
     37 H           3.0044   -2.2750    0.0000 H       1  UNL1        0.0584
     38 H           3.4030   -5.3700    0.0000 H       1  UNL1        0.2100
     39 H           4.5981   -6.0600    0.0000 H       1  UNL1        0.2100
     40 H           6.8671   -5.3700    0.0000 H       1  UNL1        0.2102
     41 H           2.0000   -2.9400    0.0000 H       1  UNL1        0.2095
     42 H           8.2700    0.0600    0.0000 H       1  UNL1        0.0692
     43 H           9.1360   -1.4400    0.0000 H       1  UNL1        0.2923
     44 H           6.3301    1.5600    0.0000 H       1  UNL1        0.0654
     45 H           8.2700    1.4400    0.0000 H       1  UNL1        0.0625
     46 H           9.1360    2.9400    0.0000 H       1  UNL1        0.0661
     47 H           6.3301    2.9400    0.0000 H       1  UNL1        0.0625
     48 H           6.3301    4.5600    0.0000 H       1  UNL1        0.0655
     49 H          10.0021    4.4400    0.0000 H       1  UNL1        0.2923
     50 H           7.1962    6.0600    0.0000 H       1  UNL1        0.2923
@<TRIPOS>BOND
     1     1    14    1
     2     1    16    1
     3    12     2    1
     4     2    38    1
     5    13     3    1
     6     3    39    1
     7    16     4    1
     8     4    18    1
     9    15     5    1
    10     5    40    1
    11     6    17    1
    12     6    41    1
    13     7    20   ar
    14     7    22   ar
    15     8    19    1
    16     8    43    1
    17     9    20    2
    18    10    28    1
    19    10    49    1
    20    11    30    1
    21    11    50    1
    22    12    13    1
    23    12    14    1
    24    12    31    1
    25    13    15    1
    26    13    32    1
    27    14    17    1
    28    14    33    1
    29    15    16    1
    30    15    34    1
    31    16    35    1
    32    17    36    1
    33    17    37    1
    34    18    19   ar
    35    18    20   ar
    36    19    21   ar
    37    21    22   ar
    38    21    42    1
    39    22    23    1
    40    23    24    2
    41    23    44    1
    42    24    25    1
    43    24    45    1
    44    25    26   ar
    45    25    27   ar
    46    26    28   ar
    47    26    46    1
    48    27    29   ar
    49    27    47    1
    50    28    30   ar
    51    29    30   ar
    52    29    48    1
