@<TRIPOS>MOLECULE
IMPHY008344
 75 79 0 0 0
SMALL
GASTEIGER

@<TRIPOS>ATOM
      1 O           8.2709   -3.6406    0.0000 O.3     1  UNL1       -0.3849
      2 O           7.7056   -3.9670    0.0000 O.3     1  UNL1       -0.3851
      3 O           7.0628   -0.2009    0.0000 O.3     1  UNL1       -0.4575
      4 O           8.5677   -0.4446    0.0000 O.3     1  UNL1       -0.3803
      5 O           9.5823    0.1849    0.0000 O.2     1  UNL1       -0.2946
      6 O           2.5357   -4.7533    0.0000 O.3     1  UNL1       -0.3915
      7 O           5.3307   -0.2009    0.0000 O.2     1  UNL1       -0.2456
      8 C           7.9288   -2.7009    0.0000 C.3     1  UNL1        0.1070
      9 C           7.9288   -1.7009    0.0000 C.3     1  UNL1        0.0718
     10 C           7.0628   -3.2009    0.0000 C.3     1  UNL1        0.1024
     11 C           6.1968   -2.7009    0.0000 C.3     1  UNL1        0.0033
     12 C           8.8750   -1.3962    0.0000 C.3     1  UNL1        0.1347
     13 C           7.0628   -1.2009    0.0000 C.3     1  UNL1        0.1149
     14 C           5.2868   -3.2078    0.0000 C.3     1  UNL1       -0.0053
     15 C           6.1968   -1.7009    0.0000 C.3     1  UNL1       -0.0086
     16 C           8.8750   -3.0056    0.0000 C.3     1  UNL1       -0.0175
     17 C           9.4586   -2.2009    0.0000 C.3     1  UNL1       -0.0136
     18 C           7.0789   -4.2424    0.0000 C.3     1  UNL1       -0.0025
     19 C           7.9288   -0.7009    0.0000 C.3     1  UNL1       -0.0503
     20 C           5.2787   -4.2494    0.0000 C.2     1  UNL1       -0.0647
     21 C           4.3599   -2.6437    0.0000 C.3     1  UNL1       -0.0412
     22 C           6.1808   -4.7702    0.0000 C.2     1  UNL1       -0.0813
     23 C           5.2945   -2.2078    0.0000 C.3     1  UNL1       -0.0555
     24 C           9.6851   -0.8098    0.0000 C.2     1  UNL1        0.1623
     25 C           4.3433   -4.7991    0.0000 C.3     1  UNL1       -0.0051
     26 C           3.4120   -3.1716    0.0000 C.3     1  UNL1       -0.0258
     27 C           3.4037   -4.2566    0.0000 C.3     1  UNL1        0.0590
     28 C          10.5979   -1.2181    0.0000 C.3     1  UNL1       -0.0031
     29 C           6.1968    0.2991    0.0000 C.2     1  UNL1        0.3322
     30 C           6.1968    1.2991    0.0000 C.2     1  UNL1        0.0231
     31 C           5.3307    1.7991    0.0000 C.2     1  UNL1       -0.0478
     32 C           5.3307    2.7991    0.0000 C.ar    1  UNL1       -0.0248
     33 C           6.1968    3.2991    0.0000 C.ar    1  UNL1       -0.0546
     34 C           4.4647    3.2991    0.0000 C.ar    1  UNL1       -0.0546
     35 C           6.1968    4.2991    0.0000 C.ar    1  UNL1       -0.0612
     36 C           4.4647    4.2991    0.0000 C.ar    1  UNL1       -0.0612
     37 C           5.3307    4.7991    0.0000 C.ar    1  UNL1       -0.0617
     38 H           6.9329   -2.2759    0.0000 H       1  UNL1        0.0339
     39 H           6.5259   -0.8909    0.0000 H       1  UNL1        0.0741
     40 H           5.9847   -1.1183    0.0000 H       1  UNL1        0.0305
     41 H           5.5862   -1.8086    0.0000 H       1  UNL1        0.0305
     42 H           8.6240   -3.5726    0.0000 H       1  UNL1        0.0295
     43 H           9.4124   -3.3149    0.0000 H       1  UNL1        0.0295
     44 H           9.9195   -2.6156    0.0000 H       1  UNL1        0.0298
     45 H           9.9195   -1.7862    0.0000 H       1  UNL1        0.0298
     46 H           7.2969   -4.8228    0.0000 H       1  UNL1        0.0336
     47 H           7.6880   -4.1269    0.0000 H       1  UNL1        0.0336
     48 H           8.5488   -0.7009    0.0000 H       1  UNL1        0.0238
     49 H           7.9288   -0.0809    0.0000 H       1  UNL1        0.0238
     50 H           7.3088   -0.7009    0.0000 H       1  UNL1        0.0238
     51 H           4.7681   -2.1770    0.0000 H       1  UNL1        0.0274
     52 H           3.9700   -2.1616    0.0000 H       1  UNL1        0.0274
     53 H           6.1832   -5.3902    0.0000 H       1  UNL1        0.0573
     54 H           8.8814   -3.7483    0.0000 H       1  UNL1        0.2103
     55 H           5.9145   -2.2126    0.0000 H       1  UNL1        0.0238
     56 H           5.2993   -1.5878    0.0000 H       1  UNL1        0.0238
     57 H           4.6745   -2.2030    0.0000 H       1  UNL1        0.0238
     58 H           7.8133   -4.5775    0.0000 H       1  UNL1        0.2103
     59 H           3.9460   -5.2751    0.0000 H       1  UNL1        0.0335
     60 H           4.7443   -5.2720    0.0000 H       1  UNL1        0.0335
     61 H           3.2075   -2.5863    0.0000 H       1  UNL1        0.0290
     62 H           2.8004   -3.2730    0.0000 H       1  UNL1        0.0290
     63 H           8.9833    0.0154    0.0000 H       1  UNL1        0.2108
     64 H           3.4025   -4.8766    0.0000 H       1  UNL1        0.0596
     65 H          10.3448   -1.7841    0.0000 H       1  UNL1        0.0307
     66 H          11.1639   -1.4713    0.0000 H       1  UNL1        0.0307
     67 H          10.8511   -0.6522    0.0000 H       1  UNL1        0.0307
     68 H           2.0000   -4.4412    0.0000 H       1  UNL1        0.2098
     69 H           6.7337    1.6091    0.0000 H       1  UNL1        0.0689
     70 H           4.7938    1.4891    0.0000 H       1  UNL1        0.0626
     71 H           6.7337    2.9891    0.0000 H       1  UNL1        0.0623
     72 H           3.9278    2.9891    0.0000 H       1  UNL1        0.0623
     73 H           6.7337    4.6091    0.0000 H       1  UNL1        0.0618
     74 H           3.9278    4.6091    0.0000 H       1  UNL1        0.0618
     75 H           5.3307    5.4191    0.0000 H       1  UNL1        0.0618
@<TRIPOS>BOND
     1     8     1    1
     2     1    54    1
     3    10     2    1
     4     2    58    1
     5    13     3    1
     6     3    29    1
     7    12     4    1
     8     4    63    1
     9     5    24    2
    10    27     6    1
    11     6    68    1
    12     7    29    2
    13     8     9    1
    14     8    10    1
    15     8    16    1
    16     9    12    1
    17     9    13    1
    18     9    19    1
    19    10    11    1
    20    10    18    1
    21    11    14    1
    22    11    15    1
    23    11    38    1
    24    12    17    1
    25    12    24    1
    26    13    15    1
    27    13    39    1
    28    14    20    1
    29    14    21    1
    30    14    23    1
    31    15    40    1
    32    15    41    1
    33    16    17    1
    34    16    42    1
    35    16    43    1
    36    17    44    1
    37    17    45    1
    38    18    22    1
    39    18    46    1
    40    18    47    1
    41    19    48    1
    42    19    49    1
    43    19    50    1
    44    20    22    2
    45    20    25    1
    46    21    26    1
    47    21    51    1
    48    21    52    1
    49    22    53    1
    50    23    55    1
    51    23    56    1
    52    23    57    1
    53    24    28    1
    54    25    27    1
    55    25    59    1
    56    25    60    1
    57    26    27    1
    58    26    61    1
    59    26    62    1
    60    27    64    1
    61    28    65    1
    62    28    66    1
    63    28    67    1
    64    29    30    1
    65    30    31    2
    66    30    69    1
    67    31    32    1
    68    31    70    1
    69    32    33   ar
    70    32    34   ar
    71    33    35   ar
    72    33    71    1
    73    34    36   ar
    74    34    72    1
    75    35    37   ar
    76    35    73    1
    77    36    37   ar
    78    36    74    1
    79    37    75    1
