@<TRIPOS>MOLECULE
IMPHY003199
 39 41 0 0 0
SMALL
GASTEIGER

@<TRIPOS>ATOM
      1 O           2.0000   -0.1917    0.0000 O.2     1  UNL1       -0.2756
      2 N           3.7657   -0.3183    0.0000 N.am    1  UNL1       -0.2978
      3 N           7.8646   -0.1772    0.0000 N.3     1  UNL1       -0.3123
      4 C           5.8157   -0.0118    0.0000 C.3     1  UNL1       -0.0095
      5 C           6.0745    0.9541    0.0000 C.3     1  UNL1       -0.0092
      6 C           4.5947   -0.8775    0.0000 C.3     1  UNL1        0.0300
      7 C           5.3379    1.9367    0.0000 C.3     1  UNL1       -0.0417
      8 C           7.5062    0.7564    0.0000 C.3     1  UNL1        0.0153
      9 C           4.0413    0.6429    0.0000 C.3     1  UNL1        0.0192
     10 C           7.0874   -0.8065    0.0000 C.3     1  UNL1        0.0007
     11 C           4.5381   -1.9176    0.0000 C.3     1  UNL1       -0.0336
     12 C           3.6054   -2.3814    0.0000 C.3     1  UNL1       -0.0431
     13 C           2.8225   -0.7604    0.0000 C.2     1  UNL1        0.2158
     14 C           8.0508    1.5951    0.0000 C.3     1  UNL1       -0.0192
     15 C           2.7418   -1.7990    0.0000 C.3     1  UNL1        0.0242
     16 C           9.0494    1.5428    0.0000 C.2     1  UNL1       -0.0896
     17 C           9.5941    2.3814    0.0000 C.2     1  UNL1       -0.1026
     18 H           5.5957   -0.8329    0.0000 H       1  UNL1        0.0331
     19 H           6.2945    1.7751    0.0000 H       1  UNL1        0.0331
     20 H           5.2994   -1.3528    0.0000 H       1  UNL1        0.0503
     21 H           5.6557    2.4691    0.0000 H       1  UNL1        0.0273
     22 H           4.7248    2.0286    0.0000 H       1  UNL1        0.0273
     23 H           8.1228    0.6916    0.0000 H       1  UNL1        0.0466
     24 H           4.0362    1.2629    0.0000 H       1  UNL1        0.0468
     25 H           3.4270    0.7267    0.0000 H       1  UNL1        0.0468
     26 H           6.7028   -1.2928    0.0000 H       1  UNL1        0.0427
     27 H           7.5284   -1.2423    0.0000 H       1  UNL1        0.0427
     28 H           4.7151   -2.5118    0.0000 H       1  UNL1        0.0283
     29 H           5.1538   -1.8449    0.0000 H       1  UNL1        0.0283
     30 H           8.4634   -0.3376    0.0000 H       1  UNL1        0.1222
     31 H           3.1759   -2.8285    0.0000 H       1  UNL1        0.0270
     32 H           3.9724   -2.8811    0.0000 H       1  UNL1        0.0270
     33 H           8.1903    2.1992    0.0000 H       1  UNL1        0.0322
     34 H           7.4801    1.8373    0.0000 H       1  UNL1        0.0322
     35 H           2.1410   -1.6459    0.0000 H       1  UNL1        0.0358
     36 H           2.4882   -2.3647    0.0000 H       1  UNL1        0.0358
     37 H           9.3309    0.9903    0.0000 H       1  UNL1        0.0567
     38 H          10.2132    2.3490    0.0000 H       1  UNL1        0.0532
     39 H           9.3126    2.9338    0.0000 H       1  UNL1        0.0532
@<TRIPOS>BOND
     1     1    13    2
     2     2     6    1
     3     2     9    1
     4     2    13   am
     5     3     8    1
     6     3    10    1
     7     3    30    1
     8     4     6    1
     9     4     7    1
    10     4    10    1
    11     4    18    1
    12     5     7    1
    13     5     8    1
    14     5     9    1
    15     5    19    1
    16     6    11    1
    17     6    20    1
    18     7    21    1
    19     7    22    1
    20     8    14    1
    21     8    23    1
    22     9    24    1
    23     9    25    1
    24    10    26    1
    25    10    27    1
    26    11    12    1
    27    11    28    1
    28    11    29    1
    29    12    15    1
    30    12    31    1
    31    12    32    1
    32    13    15    1
    33    14    16    1
    34    14    33    1
    35    14    34    1
    36    15    35    1
    37    15    36    1
    38    16    17    2
    39    16    37    1
    40    17    38    1
    41    17    39    1
