@<TRIPOS>MOLECULE
IMPHY009374
 41 44 0 0 0
SMALL
GASTEIGER

@<TRIPOS>ATOM
      1 O           5.5022    0.5957    0.0000 O.3     1  UNL1       -0.4824
      2 O           9.0382    0.5679    0.0000 O.3     1  UNL1       -0.4815
      3 O           5.5138   -2.4736    0.0000 O.2     1  UNL1       -0.2918
      4 C           4.5961    0.0818    0.0000 C.3     1  UNL1        0.1322
      5 C           9.0462    1.6095    0.0000 C.3     1  UNL1        0.1235
      6 C           6.3961    0.0610    0.0000 C.ar    1  UNL1        0.1425
      7 C           7.2622    0.5610    0.0000 C.ar    1  UNL1        0.0589
      8 C           4.5961   -0.9598    0.0000 C.3     1  UNL1        0.0519
      9 C           6.3961   -0.9390    0.0000 C.ar    1  UNL1        0.0600
     10 C           8.1282    0.0610    0.0000 C.ar    1  UNL1        0.1324
     11 C           5.5022   -1.4736    0.0000 C.2     1  UNL1        0.1705
     12 C           8.1441    2.1303    0.0000 C.2     1  UNL1       -0.0408
     13 C           7.2461    1.6025    0.0000 C.2     1  UNL1       -0.0478
     14 C           3.7320    0.5852    0.0000 C.ar    1  UNL1       -0.0069
     15 C           7.2622   -1.4390    0.0000 C.ar    1  UNL1       -0.0442
     16 C           8.1282   -0.9390    0.0000 C.ar    1  UNL1       -0.0184
     17 C           9.5496    2.4736    0.0000 C.3     1  UNL1       -0.0215
     18 C          10.0462    1.6056    0.0000 C.3     1  UNL1       -0.0215
     19 C           3.7359    1.5852    0.0000 C.ar    1  UNL1       -0.0551
     20 C           2.8641    0.0885    0.0000 C.ar    1  UNL1       -0.0551
     21 C           2.8718    2.0885    0.0000 C.ar    1  UNL1       -0.0614
     22 C           2.0000    0.5919    0.0000 C.ar    1  UNL1       -0.0614
     23 C           2.0038    1.5918    0.0000 C.ar    1  UNL1       -0.0617
     24 H           4.5997    0.7018    0.0000 H       1  UNL1        0.0789
     25 H           3.9853   -0.8537    0.0000 H       1  UNL1        0.0385
     26 H           4.3871   -1.5435    0.0000 H       1  UNL1        0.0385
     27 H           8.1418    2.7503    0.0000 H       1  UNL1        0.0611
     28 H           6.7056    1.9063    0.0000 H       1  UNL1        0.0624
     29 H           7.2622   -2.0590    0.0000 H       1  UNL1        0.0627
     30 H           8.6651   -1.2490    0.0000 H       1  UNL1        0.0654
     31 H          10.0853    2.1615    0.0000 H       1  UNL1        0.0271
     32 H           9.8616    3.0093    0.0000 H       1  UNL1        0.0271
     33 H           9.0138    2.7856    0.0000 H       1  UNL1        0.0271
     34 H          10.0438    0.9856    0.0000 H       1  UNL1        0.0271
     35 H          10.6662    1.6032    0.0000 H       1  UNL1        0.0271
     36 H          10.0486    2.2256    0.0000 H       1  UNL1        0.0271
     37 H           4.2740    1.8931    0.0000 H       1  UNL1        0.0621
     38 H           2.8617   -0.5315    0.0000 H       1  UNL1        0.0621
     39 H           2.8742    2.7085    0.0000 H       1  UNL1        0.0618
     40 H           1.4619    0.2839    0.0000 H       1  UNL1        0.0618
     41 H           1.4681    1.9039    0.0000 H       1  UNL1        0.0618
@<TRIPOS>BOND
     1     1     4    1
     2     1     6    1
     3     2     5    1
     4     2    10    1
     5     3    11    2
     6     4     8    1
     7     4    14    1
     8     4    24    1
     9     5    12    1
    10     5    17    1
    11     5    18    1
    12     6     7   ar
    13     6     9   ar
    14     7    10   ar
    15     7    13    1
    16     8    11    1
    17     8    25    1
    18     8    26    1
    19     9    11    1
    20     9    15   ar
    21    10    16   ar
    22    12    13    2
    23    12    27    1
    24    13    28    1
    25    14    19   ar
    26    14    20   ar
    27    15    16   ar
    28    15    29    1
    29    16    30    1
    30    17    31    1
    31    17    32    1
    32    17    33    1
    33    18    34    1
    34    18    35    1
    35    18    36    1
    36    19    21   ar
    37    19    37    1
    38    20    22   ar
    39    20    38    1
    40    21    23   ar
    41    21    39    1
    42    22    23   ar
    43    22    40    1
    44    23    41    1
