@<TRIPOS>MOLECULE
IMPHY008756
 35 35 0 0 0
SMALL
GASTEIGER

@<TRIPOS>ATOM
      1 O           2.0000   -0.3170    0.0000 O.2     1  UNL1       -0.2965
      2 O           3.7320    2.6830    0.0000 O.2     1  UNL1       -0.2930
      3 C           4.5981   -1.8170    0.0000 C.3     1  UNL1       -0.0333
      4 C           3.7320   -2.3170    0.0000 C.3     1  UNL1       -0.0385
      5 C           4.5981   -0.8170    0.0000 C.3     1  UNL1       -0.0348
      6 C           2.8660   -1.8170    0.0000 C.3     1  UNL1        0.0158
      7 C           3.7320   -0.3170    0.0000 C.3     1  UNL1        0.0367
      8 C           2.8660   -0.8170    0.0000 C.2     1  UNL1        0.1429
      9 C           5.0981   -2.6830    0.0000 C.3     1  UNL1       -0.0598
     10 C           5.5981   -1.8170    0.0000 C.3     1  UNL1       -0.0598
     11 C           2.0000   -2.3170    0.0000 C.3     1  UNL1       -0.0557
     12 C           3.7320    0.6830    0.0000 C.2     1  UNL1       -0.0705
     13 C           4.5981    1.1830    0.0000 C.2     1  UNL1       -0.0228
     14 C           4.5981    2.1830    0.0000 C.2     1  UNL1        0.1528
     15 C           5.4641    2.6830    0.0000 C.3     1  UNL1       -0.0020
     16 H           3.3335   -2.7919    0.0000 H       1  UNL1        0.0277
     17 H           4.1306   -2.7919    0.0000 H       1  UNL1        0.0277
     18 H           5.2087   -0.9246    0.0000 H       1  UNL1        0.0280
     19 H           4.8101   -0.2344    0.0000 H       1  UNL1        0.0280
     20 H           2.8660   -2.4370    0.0000 H       1  UNL1        0.0375
     21 H           4.2690   -0.0070    0.0000 H       1  UNL1        0.0420
     22 H           5.5981   -2.4370    0.0000 H       1  UNL1        0.0235
     23 H           4.5611   -2.9930    0.0000 H       1  UNL1        0.0235
     24 H           5.4081   -3.2200    0.0000 H       1  UNL1        0.0235
     25 H           5.6350   -2.3730    0.0000 H       1  UNL1        0.0235
     26 H           6.2181   -1.8170    0.0000 H       1  UNL1        0.0235
     27 H           5.5981   -1.1970    0.0000 H       1  UNL1        0.0235
     28 H           1.6900   -1.7800    0.0000 H       1  UNL1        0.0236
     29 H           1.4631   -2.6270    0.0000 H       1  UNL1        0.0236
     30 H           2.3100   -2.8539    0.0000 H       1  UNL1        0.0236
     31 H           3.1951    0.9930    0.0000 H       1  UNL1        0.0580
     32 H           5.1350    0.8730    0.0000 H       1  UNL1        0.0649
     33 H           5.7741    2.1461    0.0000 H       1  UNL1        0.0309
     34 H           6.0010    2.9930    0.0000 H       1  UNL1        0.0309
     35 H           5.1541    3.2200    0.0000 H       1  UNL1        0.0309
@<TRIPOS>BOND
     1     1     8    2
     2     2    14    2
     3     3     4    1
     4     3     5    1
     5     3     9    1
     6     3    10    1
     7     4     6    1
     8     4    16    1
     9     4    17    1
    10     5     7    1
    11     5    18    1
    12     5    19    1
    13     6     8    1
    14     6    11    1
    15     6    20    1
    16     7     8    1
    17     7    12    1
    18     7    21    1
    19     9    23    1
    20     9    24    1
    21     9    25    1
    22    10    22    1
    23    10    26    1
    24    10    27    1
    25    11    28    1
    26    11    29    1
    27    11    30    1
    28    12    13    2
    29    12    31    1
    30    13    14    1
    31    13    32    1
    32    14    15    1
    33    15    33    1
    34    15    34    1
    35    15    35    1
