@<TRIPOS>MOLECULE
IMPHY002440
 48 52 0 0 0
SMALL
GASTEIGER

@<TRIPOS>ATOM
      1 O           4.2494    1.4548    0.0000 O.3     1  UNL1       -0.4677
      2 O           5.8265    2.1707    0.0000 O.2     1  UNL1       -0.2505
      3 N           5.4068   -1.5777    0.0000 N.3     1  UNL1       -0.2937
      4 N           6.7907    0.8173    0.0000 N.pl3   1  UNL1       -0.3384
      5 C           7.2907   -0.7215    0.0000 C.3     1  UNL1        0.0318
      6 C           6.4817   -0.1337    0.0000 C.3     1  UNL1        0.0467
      7 C           5.5237   -0.5427    0.0000 C.3     1  UNL1        0.0304
      8 C           5.6579    0.4469    0.0000 C.3     1  UNL1        0.0744
      9 C           3.8297   -0.3830    0.0000 C.3     1  UNL1       -0.0034
     10 C           4.7222    0.0193    0.0000 C.3     1  UNL1       -0.0282
     11 C           7.1978   -1.7590    0.0000 C.3     1  UNL1       -0.0279
     12 C           6.2495   -2.1900    0.0000 C.3     1  UNL1        0.0004
     13 C           8.0997   -0.1337    0.0000 C.ar    1  UNL1       -0.0177
     14 C           3.7199   -1.3557    0.0000 C.2     1  UNL1       -0.0558
     15 C           4.5002   -1.9468    0.0000 C.3     1  UNL1        0.0207
     16 C           7.7907    0.8173    0.0000 C.ar    1  UNL1        0.0312
     17 C           5.2446    1.3574    0.0000 C.2     1  UNL1        0.3114
     18 C           9.1151   -0.3660    0.0000 C.ar    1  UNL1       -0.0562
     19 C           2.8008   -1.7497    0.0000 C.2     1  UNL1       -0.0864
     20 C           8.4757    1.6021    0.0000 C.ar    1  UNL1       -0.0406
     21 C           9.8181    0.4027    0.0000 C.ar    1  UNL1       -0.0614
     22 C           9.4962    1.3934    0.0000 C.ar    1  UNL1       -0.0600
     23 C           2.0000   -1.1508    0.0000 C.3     1  UNL1       -0.0465
     24 C           3.8360    2.3654    0.0000 C.3     1  UNL1        0.0817
     25 H           6.2760    0.6910    0.0000 H       1  UNL1        0.0522
     26 H           5.1840    0.2365    0.0000 H       1  UNL1        0.0481
     27 H           6.1369    0.8405    0.0000 H       1  UNL1        0.0429
     28 H           3.1422    0.1168    0.0000 H       1  UNL1        0.0355
     29 H           5.1626    0.4556    0.0000 H       1  UNL1        0.0287
     30 H           4.3710    0.5302    0.0000 H       1  UNL1        0.0287
     31 H           7.3540   -2.3590    0.0000 H       1  UNL1        0.0287
     32 H           7.8157   -1.7078    0.0000 H       1  UNL1        0.0287
     33 H           5.8046   -2.6218    0.0000 H       1  UNL1        0.0427
     34 H           6.5989   -2.7022    0.0000 H       1  UNL1        0.0427
     35 H           6.7259    1.4339    0.0000 H       1  UNL1        0.1464
     36 H           4.0439   -2.3666    0.0000 H       1  UNL1        0.0473
     37 H           4.8322   -2.4704    0.0000 H       1  UNL1        0.0473
     38 H           9.2999   -0.9578    0.0000 H       1  UNL1        0.0621
     39 H           2.7274   -2.3654    0.0000 H       1  UNL1        0.0569
     40 H           8.2773    2.1895    0.0000 H       1  UNL1        0.0636
     41 H          10.4240    0.2715    0.0000 H       1  UNL1        0.0618
     42 H           9.9093    1.8557    0.0000 H       1  UNL1        0.0618
     43 H           2.3713   -0.6543    0.0000 H       1  UNL1        0.0272
     44 H           1.5035   -0.7795    0.0000 H       1  UNL1        0.0272
     45 H           1.6287   -1.6473    0.0000 H       1  UNL1        0.0272
     46 H           4.4006    2.6216    0.0000 H       1  UNL1        0.0661
     47 H           3.5798    2.9299    0.0000 H       1  UNL1        0.0661
     48 H           3.2715    2.1091    0.0000 H       1  UNL1        0.0661
@<TRIPOS>BOND
     1     1    17    1
     2     1    24    1
     3     2    17    2
     4     3     7    1
     5     3    12    1
     6     3    15    1
     7     4     6    1
     8     4    16    1
     9     4    35    1
    10     5     6    1
    11     5     8    1
    12     5    11    1
    13     5    13    1
    14     6     7    1
    15     6    25    1
    16     7    10    1
    17     7    26    1
    18     8     9    1
    19     8    17    1
    20     8    27    1
    21     9    10    1
    22     9    14    1
    23     9    28    1
    24    10    29    1
    25    10    30    1
    26    11    12    1
    27    11    31    1
    28    11    32    1
    29    12    33    1
    30    12    34    1
    31    13    16   ar
    32    13    18   ar
    33    14    15    1
    34    14    19    2
    35    15    36    1
    36    15    37    1
    37    16    20   ar
    38    18    21   ar
    39    18    38    1
    40    19    23    1
    41    19    39    1
    42    20    22   ar
    43    20    40    1
    44    21    22   ar
    45    21    41    1
    46    22    42    1
    47    23    43    1
    48    23    44    1
    49    23    45    1
    50    24    46    1
    51    24    47    1
    52    24    48    1
