@<TRIPOS>MOLECULE
IMPHY004922
 54 53 0 0 0
SMALL
GASTEIGER

@<TRIPOS>ATOM
      1 O          17.5885   -0.2500    0.0000 O.3     1  UNL1       -0.4647
      2 O           2.8660    0.2500    0.0000 O.3     1  UNL1       -0.4647
      3 O          16.7224    1.2500    0.0000 O.2     1  UNL1       -0.2453
      4 O           3.7320   -1.2500    0.0000 O.2     1  UNL1       -0.2453
      5 C          12.3923   -0.2500    0.0000 C.2     1  UNL1       -0.0504
      6 C           8.0622    0.2500    0.0000 C.2     1  UNL1       -0.0504
      7 C          11.5263    0.2500    0.0000 C.2     1  UNL1       -0.0588
      8 C           8.9282   -0.2500    0.0000 C.2     1  UNL1       -0.0588
      9 C          13.2583    0.2500    0.0000 C.2     1  UNL1       -0.0588
     10 C           7.1962   -0.2500    0.0000 C.2     1  UNL1       -0.0588
     11 C          10.6603   -0.2500    0.0000 C.2     1  UNL1       -0.0615
     12 C           9.7942    0.2500    0.0000 C.2     1  UNL1       -0.0615
     13 C          12.3923   -1.2500    0.0000 C.3     1  UNL1       -0.0397
     14 C           8.0622    1.2500    0.0000 C.3     1  UNL1       -0.0397
     15 C          14.1244   -0.2500    0.0000 C.2     1  UNL1       -0.0610
     16 C           6.3301    0.2500    0.0000 C.2     1  UNL1       -0.0610
     17 C          15.8564   -0.2500    0.0000 C.2     1  UNL1        0.0335
     18 C           4.5981    0.2500    0.0000 C.2     1  UNL1        0.0335
     19 C          14.9904    0.2500    0.0000 C.2     1  UNL1       -0.0521
     20 C           5.4641   -0.2500    0.0000 C.2     1  UNL1       -0.0521
     21 C          15.8564   -1.2500    0.0000 C.3     1  UNL1       -0.0329
     22 C           4.5981    1.2500    0.0000 C.3     1  UNL1       -0.0329
     23 C          16.7224    0.2500    0.0000 C.2     1  UNL1        0.3346
     24 C           3.7320   -0.2500    0.0000 C.2     1  UNL1        0.3346
     25 C          18.4545    0.2500    0.0000 C.3     1  UNL1        0.0820
     26 C           2.0000   -0.2500    0.0000 C.3     1  UNL1        0.0820
     27 H           8.9282   -0.8700    0.0000 H       1  UNL1        0.0620
     28 H          11.5263    0.8700    0.0000 H       1  UNL1        0.0620
     29 H          13.2583    0.8700    0.0000 H       1  UNL1        0.0620
     30 H           7.1962   -0.8700    0.0000 H       1  UNL1        0.0620
     31 H           9.7942    0.8700    0.0000 H       1  UNL1        0.0618
     32 H          10.6603   -0.8700    0.0000 H       1  UNL1        0.0618
     33 H           8.6822    1.2500    0.0000 H       1  UNL1        0.0278
     34 H           8.0622    1.8700    0.0000 H       1  UNL1        0.0278
     35 H           7.4422    1.2500    0.0000 H       1  UNL1        0.0278
     36 H          11.7723   -1.2500    0.0000 H       1  UNL1        0.0278
     37 H          12.3923   -1.8700    0.0000 H       1  UNL1        0.0278
     38 H          13.0123   -1.2500    0.0000 H       1  UNL1        0.0278
     39 H           6.3301    0.8700    0.0000 H       1  UNL1        0.0618
     40 H          14.1244   -0.8700    0.0000 H       1  UNL1        0.0618
     41 H          14.9904    0.8700    0.0000 H       1  UNL1        0.0622
     42 H           5.4641   -0.8700    0.0000 H       1  UNL1        0.0622
     43 H          15.2364   -1.2500    0.0000 H       1  UNL1        0.0280
     44 H          15.8564   -1.8700    0.0000 H       1  UNL1        0.0280
     45 H          16.4764   -1.2500    0.0000 H       1  UNL1        0.0280
     46 H           5.2181    1.2500    0.0000 H       1  UNL1        0.0280
     47 H           4.5981    1.8700    0.0000 H       1  UNL1        0.0280
     48 H           3.9781    1.2500    0.0000 H       1  UNL1        0.0280
     49 H          18.7645   -0.2869    0.0000 H       1  UNL1        0.0661
     50 H          18.9914    0.5600    0.0000 H       1  UNL1        0.0661
     51 H          18.1445    0.7869    0.0000 H       1  UNL1        0.0661
     52 H           1.6900    0.2869    0.0000 H       1  UNL1        0.0661
     53 H           1.4631   -0.5600    0.0000 H       1  UNL1        0.0661
     54 H           2.3100   -0.7869    0.0000 H       1  UNL1        0.0661
@<TRIPOS>BOND
     1     1    23    1
     2     1    25    1
     3     2    24    1
     4     2    26    1
     5     3    23    2
     6     4    24    2
     7     5     7    2
     8     5     9    1
     9     5    13    1
    10     6     8    2
    11     6    10    1
    12     6    14    1
    13     7    11    1
    14     7    28    1
    15     8    12    1
    16     8    27    1
    17     9    15    2
    18     9    29    1
    19    10    16    2
    20    10    30    1
    21    11    12    2
    22    11    32    1
    23    12    31    1
    24    13    36    1
    25    13    37    1
    26    13    38    1
    27    14    33    1
    28    14    34    1
    29    14    35    1
    30    15    19    1
    31    15    40    1
    32    16    20    1
    33    16    39    1
    34    17    19    2
    35    17    21    1
    36    17    23    1
    37    18    20    2
    38    18    22    1
    39    18    24    1
    40    19    41    1
    41    20    42    1
    42    21    43    1
    43    21    44    1
    44    21    45    1
    45    22    46    1
    46    22    47    1
    47    22    48    1
    48    25    49    1
    49    25    50    1
    50    25    51    1
    51    26    52    1
    52    26    53    1
    53    26    54    1
