@<TRIPOS>MOLECULE
IMPHY008376
 190 204 0 0 0
SMALL
GASTEIGER

@<TRIPOS>ATOM
      1 O           5.9860   -2.7041    0.0000 O.3     1  UNL1       -0.3281
      2 O           8.4266   -4.6986    0.0000 O.3     1  UNL1       -0.4500
      3 O           6.8680   -5.2456    0.0000 O.3     1  UNL1       -0.4512
      4 O          16.5876    2.5659    0.0000 O.3     1  UNL1       -0.3374
      5 O           8.4494   -1.7475    0.0000 O.3     1  UNL1       -0.4476
      6 O           6.8802   -1.1764    0.0000 O.3     1  UNL1       -0.4275
      7 O          14.7610    5.0325    0.0000 O.3     1  UNL1       -0.4501
      8 O          13.9413    3.1736    0.0000 O.3     1  UNL1       -0.4511
      9 O          16.7468    5.2700    0.0000 O.3     1  UNL1       -0.4488
     10 O           4.8772   -5.2116    0.0000 O.3     1  UNL1       -0.4584
     11 O          17.9817    3.6568    0.0000 O.3     1  UNL1       -0.3641
     12 O          15.7524    0.7216    0.0000 O.3     1  UNL1       -0.4584
     13 O           9.4939   -6.0864    0.0000 O.2     1  UNL1       -0.2449
     14 O           9.5379   -0.3763    0.0000 O.2     1  UNL1       -0.2449
     15 O           5.8477   -6.9259    0.0000 O.2     1  UNL1       -0.2449
     16 O          12.7286    0.4296    0.0000 O.3     1  UNL1       -0.4476
     17 O          15.5482    6.8710    0.0000 O.2     1  UNL1       -0.2449
     18 O           5.1481   -1.1830    0.0000 O.2     1  UNL1       -0.2449
     19 O          15.7538    5.1512    0.0000 O.2     1  UNL1       -0.2449
     20 O          14.1271    1.4515    0.0000 O.2     1  UNL1       -0.2448
     21 O           5.8772   -5.2116    0.0000 O.2     1  UNL1       -0.2449
     22 O          13.4991   -2.8141    0.0000 O.3     1  UNL1       -0.5028
     23 O          13.4922   -3.7100    0.0000 O.3     1  UNL1       -0.5028
     24 O          14.0275   -1.3624    0.0000 O.3     1  UNL1       -0.5009
     25 O           6.3741   -9.5798    0.0000 O.3     1  UNL1       -0.5028
     26 O          12.6718   -6.9414    0.0000 O.3     1  UNL1       -0.5032
     27 O          13.9982   -5.1696    0.0000 O.3     1  UNL1       -0.5009
     28 O          17.1429    1.7543    0.0000 O.2     1  UNL1       -0.2450
     29 O          14.7419    9.4296    0.0000 O.3     1  UNL1       -0.5028
     30 O           5.3803   -9.5798    0.0000 O.3     1  UNL1       -0.5028
     31 O          15.7286    9.5476    0.0000 O.3     1  UNL1       -0.5028
     32 O           9.4464   -7.8217    0.0000 O.3     1  UNL1       -0.5032
     33 O           8.4223   -9.5956    0.0000 O.3     1  UNL1       -0.5009
     34 O          11.9000    7.3191    0.0000 O.3     1  UNL1       -0.5032
     35 O          12.7063    9.2021    0.0000 O.3     1  UNL1       -0.5009
     36 O          18.9880    8.1667    0.0000 O.3     1  UNL1       -0.5032
     37 O          17.7605    9.8064    0.0000 O.3     1  UNL1       -0.5009
     38 O          10.7401    0.2151    0.0000 O.3     1  UNL1       -0.5008
     39 O           3.3321   -9.5956    0.0000 O.3     1  UNL1       -0.5009
     40 O           2.3079   -7.8217    0.0000 O.3     1  UNL1       -0.5032
     41 O          10.3686    3.6593    0.0000 O.3     1  UNL1       -0.5032
     42 O           9.5601    1.8300    0.0000 O.3     1  UNL1       -0.5008
     43 O           4.2686    2.3136    0.0000 O.3     1  UNL1       -0.5032
     44 O           7.7327    2.3269    0.0000 O.3     1  UNL1       -0.5032
     45 O           5.9968    3.3203    0.0000 O.3     1  UNL1       -0.5009
     46 O          19.9249   -0.5393    0.0000 O.3     1  UNL1       -0.5032
     47 O          17.1438   -2.6046    0.0000 O.3     1  UNL1       -0.5032
     48 O          19.1305   -2.3748    0.0000 O.3     1  UNL1       -0.4149
     49 O          20.5211   -1.3422    0.0000 O.2     1  UNL1       -0.2445
     50 O          23.3031   -3.6358    0.0000 O.3     1  UNL1       -0.5032
     51 O          20.5220   -5.7011    0.0000 O.3     1  UNL1       -0.5032
     52 O          22.5087   -5.4712    0.0000 O.3     1  UNL1       -0.5009
     53 C           7.7780   -3.7388    0.0000 C.3     1  UNL1        0.1851
     54 C           6.8680   -4.2456    0.0000 C.3     1  UNL1        0.1730
     55 C           7.7861   -2.6972    0.0000 C.3     1  UNL1        0.2053
     56 C           6.0020   -3.7456    0.0000 C.3     1  UNL1        0.1371
     57 C           6.8840   -2.1764    0.0000 C.3     1  UNL1        0.2465
     58 C          15.3603    4.2320    0.0000 C.3     1  UNL1        0.1840
     59 C          14.9355    3.2808    0.0000 C.3     1  UNL1        0.1729
     60 C          16.3532    4.3507    0.0000 C.3     1  UNL1        0.1938
     61 C          15.5533    2.4422    0.0000 C.3     1  UNL1        0.1361
     62 C           5.1360   -4.2456    0.0000 C.3     1  UNL1        0.1226
     63 C          16.9902    3.5266    0.0000 C.3     1  UNL1        0.1981
     64 C          15.1562    1.5245    0.0000 C.3     1  UNL1        0.1226
     65 C           9.5180   -5.0866    0.0000 C.2     1  UNL1        0.3405
     66 C           9.5466   -1.3763    0.0000 C.2     1  UNL1        0.3406
     67 C           6.3772   -6.0776    0.0000 C.2     1  UNL1        0.3405
     68 C          10.6503   -1.7282    0.0000 C.ar    1  UNL1        0.0740
     69 C          10.6270   -4.7518    0.0000 C.ar    1  UNL1        0.0740
     70 C          15.1546    5.9517    0.0000 C.2     1  UNL1        0.3405
     71 C          11.3301   -2.6661    0.0000 C.ar    1  UNL1        0.0458
     72 C           6.0122   -0.6797    0.0000 C.2     1  UNL1        0.3417
     73 C           6.8772   -6.9436    0.0000 C.ar    1  UNL1        0.0740
     74 C          11.3212   -3.8245    0.0000 C.ar    1  UNL1        0.0458
     75 C          16.1475    6.0705    0.0000 C.2     1  UNL1        0.3406
     76 C          13.5371    2.2589    0.0000 C.2     1  UNL1        0.3435
     77 C           5.3772   -6.0776    0.0000 C.2     1  UNL1        0.3401
     78 C          14.5553    6.7523    0.0000 C.ar    1  UNL1        0.0740
     79 C           6.3772   -7.8096    0.0000 C.ar    1  UNL1        0.0458
     80 C          16.5412    6.9898    0.0000 C.ar    1  UNL1        0.0740
     81 C           4.8772   -6.9436    0.0000 C.ar    1  UNL1        0.0740
     82 C           5.3772   -7.8096    0.0000 C.ar    1  UNL1        0.0458
     83 C          14.9490    7.6715    0.0000 C.ar    1  UNL1        0.0458
     84 C          15.9419    7.7903    0.0000 C.ar    1  UNL1        0.0458
     85 C          11.1252   -0.6190    0.0000 C.ar    1  UNL1       -0.0009
     86 C          12.5428    2.1517    0.0000 C.ar    1  UNL1        0.1085
     87 C          11.0848   -5.8682    0.0000 C.ar    1  UNL1       -0.0017
     88 C          12.5320   -2.5599    0.0000 C.ar    1  UNL1        0.1708
     89 C          12.5213   -3.9492    0.0000 C.ar    1  UNL1        0.1708
     90 C           6.0084    0.3203    0.0000 C.ar    1  UNL1        0.0662
     91 C          12.3243   -0.4850    0.0000 C.ar    1  UNL1        0.1743
     92 C           7.9187   -6.9275    0.0000 C.ar    1  UNL1       -0.0017
     93 C          16.7457    0.8365    0.0000 C.2     1  UNL1        0.3395
     94 C          13.0325   -1.4620    0.0000 C.ar    1  UNL1        0.2021
     95 C          12.1386    1.2370    0.0000 C.ar    1  UNL1        0.1876
     96 C           6.8840   -8.7196    0.0000 C.ar    1  UNL1        0.1708
     97 C          13.5231    6.6127    0.0000 C.ar    1  UNL1       -0.0017
     98 C          12.2817   -6.0206    0.0000 C.ar    1  UNL1        0.1628
     99 C          17.5772    7.0975    0.0000 C.ar    1  UNL1       -0.0017
    100 C          13.0048   -5.0547    0.0000 C.ar    1  UNL1        0.2012
    101 C          14.3376    8.5149    0.0000 C.ar    1  UNL1        0.1708
    102 C           4.8703   -8.7196    0.0000 C.ar    1  UNL1        0.1708
    103 C          16.3371    8.7540    0.0000 C.ar    1  UNL1        0.1708
    104 C           3.8357   -6.9275    0.0000 C.ar    1  UNL1       -0.0017
    105 C           8.4464   -7.8256    0.0000 C.ar    1  UNL1        0.1628
    106 C          11.9528    2.9591    0.0000 C.ar    1  UNL1        0.0013
    107 C           7.9256   -8.7277    0.0000 C.ar    1  UNL1        0.2012
    108 C          12.8924    7.4417    0.0000 C.ar    1  UNL1        0.1628
    109 C           6.8724    0.8236    0.0000 C.ar    1  UNL1       -0.0023
    110 C           5.1404    0.8169    0.0000 C.ar    1  UNL1       -0.0023
    111 C          13.3025    8.3992    0.0000 C.ar    1  UNL1        0.2012
    112 C          17.9946    8.0518    0.0000 C.ar    1  UNL1        0.1628
    113 C          17.3704    8.8857    0.0000 C.ar    1  UNL1        0.2012
    114 C          17.3419    0.0337    0.0000 C.ar    1  UNL1        0.0661
    115 C          11.1444    1.1298    0.0000 C.ar    1  UNL1        0.2060
    116 C           3.8287   -8.7277    0.0000 C.ar    1  UNL1        0.2012
    117 C           3.3079   -7.8256    0.0000 C.ar    1  UNL1        0.1628
    118 C          10.9586    2.8519    0.0000 C.ar    1  UNL1        0.1630
    119 C          10.5544    1.9372    0.0000 C.ar    1  UNL1        0.2044
    120 C           5.1366    1.8169    0.0000 C.ar    1  UNL1        0.1628
    121 C           6.8686    1.8236    0.0000 C.ar    1  UNL1        0.1628
    122 C           6.0006    2.3203    0.0000 C.ar    1  UNL1        0.2006
    123 C          16.9448   -0.8840    0.0000 C.ar    1  UNL1       -0.0023
    124 C          18.3353    0.1486    0.0000 C.ar    1  UNL1       -0.0023
    125 C          18.9315   -0.6542    0.0000 C.ar    1  UNL1        0.1637
    126 C          17.5410   -1.6869    0.0000 C.ar    1  UNL1        0.1637
    127 C          18.5343   -1.5720    0.0000 C.ar    1  UNL1        0.2142
    128 C          20.1239   -2.2599    0.0000 C.2     1  UNL1        0.3449
    129 C          20.7201   -3.0627    0.0000 C.ar    1  UNL1        0.0665
    130 C          20.3229   -3.9805    0.0000 C.ar    1  UNL1       -0.0023
    131 C          21.7135   -2.9478    0.0000 C.ar    1  UNL1       -0.0023
    132 C          22.3097   -3.7507    0.0000 C.ar    1  UNL1        0.1628
    133 C          20.9191   -4.7833    0.0000 C.ar    1  UNL1        0.1628
    134 C          21.9125   -4.6684    0.0000 C.ar    1  UNL1        0.2006
    135 H           7.5808   -4.5656    0.0000 H       1  UNL1        0.0813
    136 H           7.6009   -4.6763    0.0000 H       1  UNL1        0.0801
    137 H           7.6016   -1.8674    0.0000 H       1  UNL1        0.0837
    138 H           5.2626   -3.3263    0.0000 H       1  UNL1        0.0670
    139 H           7.4203   -1.8653    0.0000 H       1  UNL1        0.1098
    140 H          14.5155    4.1375    0.0000 H       1  UNL1        0.0812
    141 H          14.6860    2.7133    0.0000 H       1  UNL1        0.0801
    142 H          17.1964    4.4581    0.0000 H       1  UNL1        0.0825
    143 H          15.9239    1.9452    0.0000 H       1  UNL1        0.0670
    144 H           4.9755   -3.6468    0.0000 H       1  UNL1        0.0725
    145 H           4.5160   -4.2456    0.0000 H       1  UNL1        0.0725
    146 H          17.2266    4.0997    0.0000 H       1  UNL1        0.0948
    147 H          14.6386    1.8658    0.0000 H       1  UNL1        0.0725
    148 H          14.7301    1.0740    0.0000 H       1  UNL1        0.0725
    149 H          18.3590    3.1648    0.0000 H       1  UNL1        0.2126
    150 H          10.7556   -0.1213    0.0000 H       1  UNL1        0.0664
    151 H          10.7075   -6.3602    0.0000 H       1  UNL1        0.0664
    152 H           8.2225   -6.3871    0.0000 H       1  UNL1        0.0664
    153 H          13.2856    6.0399    0.0000 H       1  UNL1        0.0664
    154 H          17.9430    6.5969    0.0000 H       1  UNL1        0.0664
    155 H           3.5319   -6.3871    0.0000 H       1  UNL1        0.0664
    156 H          12.2035    3.5262    0.0000 H       1  UNL1        0.0665
    157 H           7.4106    0.5157    0.0000 H       1  UNL1        0.0663
    158 H           4.6047    0.5049    0.0000 H       1  UNL1        0.0663
    159 H          13.9355   -2.3736    0.0000 H       1  UNL1        0.2923
    160 H          13.9217   -4.1571    0.0000 H       1  UNL1        0.2923
    161 H          14.2825   -0.7973    0.0000 H       1  UNL1        0.2924
    162 H           6.6778  -10.1203    0.0000 H       1  UNL1        0.2923
    163 H          12.2983   -7.4363    0.0000 H       1  UNL1        0.2923
    164 H          16.3289   -0.9553    0.0000 H       1  UNL1        0.0663
    165 H          18.5816    0.7176    0.0000 H       1  UNL1        0.0663
    166 H          14.2444   -5.7386    0.0000 H       1  UNL1        0.2924
    167 H          14.3761    9.9302    0.0000 H       1  UNL1        0.2923
    168 H           5.0766  -10.1203    0.0000 H       1  UNL1        0.2923
    169 H          15.9660   10.1203    0.0000 H       1  UNL1        0.2923
    170 H           9.7585   -8.3575    0.0000 H       1  UNL1        0.2923
    171 H           9.0423   -9.5980    0.0000 H       1  UNL1        0.2924
    172 H          11.5265    7.8140    0.0000 H       1  UNL1        0.2923
    173 H          12.0904    9.1308    0.0000 H       1  UNL1        0.2924
    174 H          19.3576    7.6690    0.0000 H       1  UNL1        0.2923
    175 H          18.3758    9.8824    0.0000 H       1  UNL1        0.2924
    176 H          10.1237    0.1486    0.0000 H       1  UNL1        0.2924
    177 H           2.7121   -9.5980    0.0000 H       1  UNL1        0.2924
    178 H           2.0000   -7.2836    0.0000 H       1  UNL1        0.2923
    179 H          10.6192    4.2264    0.0000 H       1  UNL1        0.2923
    180 H           9.1943    2.3306    0.0000 H       1  UNL1        0.2924
    181 H           3.7329    2.0015    0.0000 H       1  UNL1        0.2923
    182 H           7.7303    2.9469    0.0000 H       1  UNL1        0.2923
    183 H           5.4587    3.6282    0.0000 H       1  UNL1        0.2924
    184 H          20.1711    0.0297    0.0000 H       1  UNL1        0.2923
    185 H          17.5134   -3.1024    0.0000 H       1  UNL1        0.2923
    186 H          19.7070   -4.0517    0.0000 H       1  UNL1        0.0663
    187 H          21.9597   -2.3788    0.0000 H       1  UNL1        0.0663
    188 H          23.5493   -3.0668    0.0000 H       1  UNL1        0.2923
    189 H          20.8916   -6.1988    0.0000 H       1  UNL1        0.2923
    190 H          23.1246   -5.4000    0.0000 H       1  UNL1        0.2924
@<TRIPOS>BOND
     1     1    56    1
     2     1    57    1
     3     2    53    1
     4     2    65    1
     5     3    54    1
     6     3    67    1
     7     4    61    1
     8     4    63    1
     9     5    55    1
    10     5    66    1
    11    57     6    1
    12     6    72    1
    13     7    58    1
    14     7    70    1
    15    59     8    1
    16     8    76    1
    17     9    60    1
    18     9    75    1
    19    10    62    1
    20    10    77    1
    21    63    11    1
    22    11   149    1
    23    12    64    1
    24    12    93    1
    25    13    65    2
    26    14    66    2
    27    15    67    2
    28    16    91    1
    29    16    95    1
    30    17    70    2
    31    18    72    2
    32    19    75    2
    33    20    76    2
    34    21    77    2
    35    22    88    1
    36    22   159    1
    37    23    89    1
    38    23   160    1
    39    24    94    1
    40    24   161    1
    41    25    96    1
    42    25   162    1
    43    26    98    1
    44    26   163    1
    45    27   100    1
    46    27   166    1
    47    28    93    2
    48    29   101    1
    49    29   167    1
    50    30   102    1
    51    30   168    1
    52    31   103    1
    53    31   169    1
    54    32   105    1
    55    32   170    1
    56    33   107    1
    57    33   171    1
    58    34   108    1
    59    34   172    1
    60    35   111    1
    61    35   173    1
    62    36   112    1
    63    36   174    1
    64    37   113    1
    65    37   175    1
    66    38   115    1
    67    38   176    1
    68    39   116    1
    69    39   177    1
    70    40   117    1
    71    40   178    1
    72    41   118    1
    73    41   179    1
    74    42   119    1
    75    42   180    1
    76    43   120    1
    77    43   181    1
    78    44   121    1
    79    44   182    1
    80    45   122    1
    81    45   183    1
    82    46   125    1
    83    46   184    1
    84    47   126    1
    85    47   185    1
    86    48   127    1
    87    48   128    1
    88    49   128    2
    89    50   132    1
    90    50   188    1
    91    51   133    1
    92    51   189    1
    93    52   134    1
    94    52   190    1
    95    53    54    1
    96    53    55    1
    97    53   135    1
    98    54    56    1
    99    54   136    1
   100    55    57    1
   101    55   137    1
   102    56    62    1
   103    56   138    1
   104    57   139    1
   105    58    59    1
   106    58    60    1
   107    58   140    1
   108    59    61    1
   109    59   141    1
   110    60    63    1
   111    60   142    1
   112    61    64    1
   113    61   143    1
   114    62   144    1
   115    62   145    1
   116    63   146    1
   117    64   147    1
   118    64   148    1
   119    65    69    1
   120    66    68    1
   121    67    73    1
   122    68    71   ar
   123    68    85   ar
   124    69    74   ar
   125    69    87   ar
   126    70    78    1
   127    71    74    1
   128    71    88   ar
   129    72    90    1
   130    73    79   ar
   131    73    92   ar
   132    74    89   ar
   133    75    80    1
   134    76    86    1
   135    77    81    1
   136    78    83   ar
   137    78    97   ar
   138    79    82    1
   139    79    96   ar
   140    80    84   ar
   141    80    99   ar
   142    81    82   ar
   143    81   104   ar
   144    82   102   ar
   145    83    84    1
   146    83   101   ar
   147    84   103   ar
   148    85    91   ar
   149    85   150    1
   150    86    95   ar
   151    86   106   ar
   152    87    98   ar
   153    87   151    1
   154    88    94   ar
   155    89   100   ar
   156    90   109   ar
   157    90   110   ar
   158    91    94   ar
   159    92   105   ar
   160    92   152    1
   161    93   114    1
   162    95   115   ar
   163    96   107   ar
   164    97   108   ar
   165    97   153    1
   166    98   100   ar
   167    99   112   ar
   168    99   154    1
   169   101   111   ar
   170   102   116   ar
   171   103   113   ar
   172   104   117   ar
   173   104   155    1
   174   105   107   ar
   175   106   118   ar
   176   106   156    1
   177   108   111   ar
   178   109   121   ar
   179   109   157    1
   180   110   120   ar
   181   110   158    1
   182   112   113   ar
   183   114   123   ar
   184   114   124   ar
   185   115   119   ar
   186   116   117   ar
   187   118   119   ar
   188   120   122   ar
   189   121   122   ar
   190   123   126   ar
   191   123   164    1
   192   124   125   ar
   193   124   165    1
   194   125   127   ar
   195   126   127   ar
   196   128   129    1
   197   129   130   ar
   198   129   131   ar
   199   130   133   ar
   200   130   186    1
   201   131   132   ar
   202   131   187    1
   203   132   134   ar
   204   133   134   ar
