@<TRIPOS>MOLECULE
IMPHY004980
 36 38 0 0 0
SMALL
GASTEIGER

@<TRIPOS>ATOM
      1 O           7.3424   -1.4424    0.0000 O.3     1  UNL1       -0.4852
      2 O           9.9260   -0.6377    0.0000 O.3     1  UNL1       -0.3855
      3 O           3.7702   -1.6723    0.0000 O.2     1  UNL1       -0.4595
      4 O           5.5301    1.3623    0.0000 O.3     1  UNL1       -0.5055
      5 O           3.7817    1.3969    0.0000 O.2     1  UNL1       -0.2869
      6 C           7.9260   -0.6377    0.0000 C.3     1  UNL1        0.1323
      7 C           8.9260   -0.6377    0.0000 C.3     1  UNL1        0.0974
      8 C           7.3424    0.1671    0.0000 C.3     1  UNL1        0.0192
      9 C           6.3961   -0.1377    0.0000 C.ar    1  UNL1        0.0401
     10 C           6.3961   -1.1377    0.0000 C.ar    1  UNL1        0.1313
     11 C           8.9260   -1.6377    0.0000 C.3     1  UNL1       -0.0328
     12 C           8.9260    0.3623    0.0000 C.3     1  UNL1       -0.0328
     13 C           5.5301    0.3623    0.0000 C.ar    1  UNL1        0.1380
     14 C           5.5301   -1.6377    0.0000 C.ar    1  UNL1        0.0236
     15 C           4.6641   -0.1377    0.0000 C.ar    1  UNL1        0.1057
     16 C           4.6641   -1.1377    0.0000 C.ar    1  UNL1        0.1458
     17 C           3.7702    0.3970    0.0000 C.ar    1  UNL1        0.1963
     18 C           2.8641   -1.1585    0.0000 C.ar    1  UNL1        0.1062
     19 C           2.8641   -0.1169    0.0000 C.ar    1  UNL1        0.0237
     20 C           2.0000   -1.6618    0.0000 C.3     1  UNL1       -0.0062
     21 H           8.2077   -1.1900    0.0000 H       1  UNL1        0.0765
     22 H           7.8798    0.4763    0.0000 H       1  UNL1        0.0352
     23 H           7.0913    0.7340    0.0000 H       1  UNL1        0.0352
     24 H           8.3060   -1.6377    0.0000 H       1  UNL1        0.0258
     25 H           8.9260   -2.2577    0.0000 H       1  UNL1        0.0258
     26 H           9.5460   -1.6377    0.0000 H       1  UNL1        0.0258
     27 H           9.5460    0.3623    0.0000 H       1  UNL1        0.0258
     28 H           8.9260    0.9823    0.0000 H       1  UNL1        0.0258
     29 H           8.3060    0.3623    0.0000 H       1  UNL1        0.0258
     30 H           5.5301   -2.2577    0.0000 H       1  UNL1        0.0691
     31 H          10.2360   -1.1746    0.0000 H       1  UNL1        0.2103
     32 H           6.0671    1.6723    0.0000 H       1  UNL1        0.2922
     33 H           2.3284    0.1952    0.0000 H       1  UNL1        0.0689
     34 H           1.6879   -1.1261    0.0000 H       1  UNL1        0.0308
     35 H           1.4643   -1.9739    0.0000 H       1  UNL1        0.0308
     36 H           2.3121   -2.1976    0.0000 H       1  UNL1        0.0308
@<TRIPOS>BOND
     1     1     6    1
     2     1    10    1
     3     2     7    1
     4     2    31    1
     5     3    16   ar
     6     3    18   ar
     7     4    13    1
     8     4    32    1
     9     5    17    2
    10     6     7    1
    11     6     8    1
    12     6    21    1
    13     7    11    1
    14     7    12    1
    15     8     9    1
    16     8    22    1
    17     8    23    1
    18     9    10   ar
    19     9    13   ar
    20    10    14   ar
    21    11    24    1
    22    11    25    1
    23    11    26    1
    24    12    27    1
    25    12    28    1
    26    12    29    1
    27    13    15   ar
    28    14    16   ar
    29    14    30    1
    30    15    16   ar
    31    15    17   ar
    32    17    19   ar
    33    18    19   ar
    34    18    20    1
    35    19    33    1
    36    20    34    1
    37    20    35    1
    38    20    36    1
