@<TRIPOS>MOLECULE
IMPHY016337
 28 29 0 0 0
SMALL
GASTEIGER

@<TRIPOS>ATOM
      1 C           4.0501   -0.0417    0.0000 C.3     1  UNL1       -0.0379
      2 C           4.3089    0.9242    0.0000 C.3     1  UNL1       -0.0382
      3 C           5.7078    0.4154    0.0000 C.3     1  UNL1       -0.0408
      4 C           3.5723    1.9068    0.0000 C.3     1  UNL1       -0.0469
      5 C           5.4490   -0.5506    0.0000 C.3     1  UNL1       -0.0471
      6 C           2.8290   -0.9074    0.0000 C.3     1  UNL1       -0.0410
      7 C           2.2756    0.6130    0.0000 C.3     1  UNL1       -0.0497
      8 C           2.0000   -0.3482    0.0000 C.3     1  UNL1       -0.0499
      9 C           6.5738    0.9154    0.0000 C.3     1  UNL1       -0.0622
     10 C           2.8639   -1.9068    0.0000 C.3     1  UNL1       -0.0622
     11 H           4.1328   -0.6562    0.0000 H       1  UNL1        0.0304
     12 H           4.6782    1.4222    0.0000 H       1  UNL1        0.0303
     13 H           6.1997    0.0379    0.0000 H       1  UNL1        0.0301
     14 H           3.8901    2.4392    0.0000 H       1  UNL1        0.0271
     15 H           2.9591    1.9988    0.0000 H       1  UNL1        0.0271
     16 H           5.2541   -1.1391    0.0000 H       1  UNL1        0.0271
     17 H           6.0430   -0.7283    0.0000 H       1  UNL1        0.0271
     18 H           2.2868   -1.2080    0.0000 H       1  UNL1        0.0301
     19 H           2.2706    1.2330    0.0000 H       1  UNL1        0.0268
     20 H           1.6613    0.6968    0.0000 H       1  UNL1        0.0268
     21 H           1.4252   -0.1160    0.0000 H       1  UNL1        0.0268
     22 H           1.7089   -0.8956    0.0000 H       1  UNL1        0.0268
     23 H           6.8838    0.3784    0.0000 H       1  UNL1        0.0233
     24 H           7.1108    1.2254    0.0000 H       1  UNL1        0.0233
     25 H           6.2638    1.4523    0.0000 H       1  UNL1        0.0233
     26 H           2.2443   -1.9284    0.0000 H       1  UNL1        0.0233
     27 H           2.8856   -2.5264    0.0000 H       1  UNL1        0.0233
     28 H           3.4836   -1.8852    0.0000 H       1  UNL1        0.0233
@<TRIPOS>BOND
     1     1     4    1
     2     1     5    1
     3     1     6    1
     4     1    11    1
     5     2     3    1
     6     2     4    1
     7     2     7    1
     8     2    12    1
     9     3     5    1
    10     3     9    1
    11     3    13    1
    12     4    14    1
    13     4    15    1
    14     5    16    1
    15     5    17    1
    16     6     8    1
    17     6    10    1
    18     6    18    1
    19     7     8    1
    20     7    19    1
    21     7    20    1
    22     8    21    1
    23     8    22    1
    24     9    23    1
    25     9    24    1
    26     9    25    1
    27    10    26    1
    28    10    27    1
    29    10    28    1
