@<TRIPOS>MOLECULE
IMPHY002817
 81 85 0 0 0
SMALL
GASTEIGER

@<TRIPOS>ATOM
      1 O           2.5357   -2.3238    0.0000 O.3     1  UNL1       -0.3912
      2 C           7.0628   -0.7714    0.0000 C.3     1  UNL1       -0.0228
      3 C           6.1968   -0.2714    0.0000 C.3     1  UNL1       -0.0294
      4 C           7.9288   -0.2714    0.0000 C.3     1  UNL1       -0.0194
      5 C           5.2868   -0.7783    0.0000 C.3     1  UNL1       -0.0252
      6 C           7.9288    0.7286    0.0000 C.3     1  UNL1       -0.0257
      7 C           5.2787   -1.8199    0.0000 C.3     1  UNL1       -0.0278
      8 C           7.0789   -1.8130    0.0000 C.3     1  UNL1       -0.0466
      9 C           6.1968    0.7286    0.0000 C.3     1  UNL1       -0.0489
     10 C           8.8228    1.2632    0.0000 C.3     1  UNL1       -0.0077
     11 C           7.0628    1.2286    0.0000 C.3     1  UNL1       -0.0486
     12 C           6.1808   -2.3407    0.0000 C.3     1  UNL1       -0.0486
     13 C           4.3433   -2.3696    0.0000 C.3     1  UNL1       -0.0056
     14 C           4.3599   -0.2142    0.0000 C.3     1  UNL1       -0.0447
     15 C           8.8228   -0.8061    0.0000 C.3     1  UNL1       -0.0283
     16 C           7.7056   -1.5375    0.0000 C.3     1  UNL1       -0.0588
     17 C           8.2709   -1.2111    0.0000 C.3     1  UNL1       -0.0585
     18 C           5.2945    0.2217    0.0000 C.3     1  UNL1       -0.0590
     19 C           9.7288    0.7494    0.0000 C.2     1  UNL1       -0.0667
     20 C           3.4037   -1.8271    0.0000 C.3     1  UNL1        0.0606
     21 C           3.4120   -0.7421    0.0000 C.3     1  UNL1       -0.0258
     22 C           8.7977    2.3479    0.0000 C.3     1  UNL1       -0.0432
     23 C           9.7288   -0.2923    0.0000 C.2     1  UNL1       -0.0837
     24 C           7.9529    1.7565    0.0000 C.3     1  UNL1       -0.0556
     25 C          10.6726    1.2846    0.0000 C.3     1  UNL1       -0.0260
     26 C          10.6726    2.3696    0.0000 C.3     1  UNL1       -0.0312
     27 C           9.7288    2.9048    0.0000 C.3     1  UNL1       -0.0468
     28 C           3.8467   -3.2376    0.0000 C.3     1  UNL1       -0.0572
     29 C           4.8466   -3.2337    0.0000 C.3     1  UNL1       -0.0572
     30 C          11.1693    3.2376    0.0000 C.3     1  UNL1       -0.0595
     31 C          11.6726    2.3735    0.0000 C.3     1  UNL1       -0.0595
     32 H           6.9329    0.1536    0.0000 H       1  UNL1        0.0312
     33 H           8.6682    0.3092    0.0000 H       1  UNL1        0.0315
     34 H           5.2820   -2.6699    0.0000 H       1  UNL1        0.0312
     35 H           7.2969   -2.3933    0.0000 H       1  UNL1        0.0271
     36 H           7.6880   -1.6974    0.0000 H       1  UNL1        0.0271
     37 H           5.9847    1.3112    0.0000 H       1  UNL1        0.0268
     38 H           5.5862    0.6209    0.0000 H       1  UNL1        0.0268
     39 H           7.4613    1.7035    0.0000 H       1  UNL1        0.0268
     40 H           6.6643    1.7035    0.0000 H       1  UNL1        0.0268
     41 H           5.7835   -2.8167    0.0000 H       1  UNL1        0.0268
     42 H           6.5818   -2.8136    0.0000 H       1  UNL1        0.0268
     43 H           4.7681    0.2525    0.0000 H       1  UNL1        0.0271
     44 H           3.9700    0.2678    0.0000 H       1  UNL1        0.0271
     45 H           8.4182   -1.2759    0.0000 H       1  UNL1        0.0313
     46 H           9.2164   -1.2851    0.0000 H       1  UNL1        0.0313
     47 H           7.2306   -1.9360    0.0000 H       1  UNL1        0.0235
     48 H           8.1041   -2.0124    0.0000 H       1  UNL1        0.0235
     49 H           8.1805   -1.1389    0.0000 H       1  UNL1        0.0235
     50 H           7.6884   -1.4232    0.0000 H       1  UNL1        0.0235
     51 H           8.4830   -1.7937    0.0000 H       1  UNL1        0.0235
     52 H           8.8535   -0.9990    0.0000 H       1  UNL1        0.0235
     53 H           5.9145    0.2169    0.0000 H       1  UNL1        0.0235
     54 H           5.2993    0.8417    0.0000 H       1  UNL1        0.0235
     55 H           4.6745    0.2265    0.0000 H       1  UNL1        0.0235
     56 H           3.4025   -2.4471    0.0000 H       1  UNL1        0.0599
     57 H           3.2075   -0.1569    0.0000 H       1  UNL1        0.0290
     58 H           2.8004   -0.8435    0.0000 H       1  UNL1        0.0290
     59 H           8.5752    2.9266    0.0000 H       1  UNL1        0.0274
     60 H           8.1894    2.2277    0.0000 H       1  UNL1        0.0274
     61 H          10.2646   -0.6043    0.0000 H       1  UNL1        0.0572
     62 H           8.2588    2.2958    0.0000 H       1  UNL1        0.0238
     63 H           7.4136    2.0624    0.0000 H       1  UNL1        0.0238
     64 H           7.6471    1.2172    0.0000 H       1  UNL1        0.0238
     65 H          10.8817    0.7009    0.0000 H       1  UNL1        0.0315
     66 H          11.2835    1.3907    0.0000 H       1  UNL1        0.0315
     67 H          10.1225    3.3839    0.0000 H       1  UNL1        0.0271
     68 H           9.3242    3.3746    0.0000 H       1  UNL1        0.0271
     69 H           3.3085   -2.9296    0.0000 H       1  UNL1        0.0236
     70 H           3.5387   -3.7757    0.0000 H       1  UNL1        0.0236
     71 H           4.3848   -3.5455    0.0000 H       1  UNL1        0.0236
     72 H           4.3109   -3.5458    0.0000 H       1  UNL1        0.0236
     73 H           5.1587   -3.7694    0.0000 H       1  UNL1        0.0236
     74 H           5.3824   -2.9216    0.0000 H       1  UNL1        0.0236
     75 H           2.0000   -2.0117    0.0000 H       1  UNL1        0.2098
     76 H          11.7074    2.9296    0.0000 H       1  UNL1        0.0235
     77 H          11.4772    3.7757    0.0000 H       1  UNL1        0.0235
     78 H          10.6311    3.5455    0.0000 H       1  UNL1        0.0235
     79 H          11.6750    1.7535    0.0000 H       1  UNL1        0.0235
     80 H          12.2926    2.3758    0.0000 H       1  UNL1        0.0235
     81 H          11.6702    2.9935    0.0000 H       1  UNL1        0.0235
@<TRIPOS>BOND
     1    20     1    1
     2     1    75    1
     3     2     3    1
     4     2     4    1
     5     2     8    1
     6     2    16    1
     7     3     5    1
     8     3     9    1
     9     3    32    1
    10     4     6    1
    11     4    15    1
    12     4    17    1
    13     5     7    1
    14     5    14    1
    15     5    18    1
    16     6    10    1
    17     6    11    1
    18     6    33    1
    19     7    12    1
    20     7    13    1
    21     7    34    1
    22     8    12    1
    23     8    35    1
    24     8    36    1
    25     9    11    1
    26     9    37    1
    27     9    38    1
    28    10    19    1
    29    10    22    1
    30    10    24    1
    31    11    39    1
    32    11    40    1
    33    12    41    1
    34    12    42    1
    35    13    20    1
    36    13    28    1
    37    13    29    1
    38    14    21    1
    39    14    43    1
    40    14    44    1
    41    15    23    1
    42    15    45    1
    43    15    46    1
    44    16    47    1
    45    16    48    1
    46    16    49    1
    47    17    50    1
    48    17    51    1
    49    17    52    1
    50    18    53    1
    51    18    54    1
    52    18    55    1
    53    19    23    2
    54    19    25    1
    55    20    21    1
    56    20    56    1
    57    21    57    1
    58    21    58    1
    59    22    27    1
    60    22    59    1
    61    22    60    1
    62    23    61    1
    63    24    62    1
    64    24    63    1
    65    24    64    1
    66    25    26    1
    67    25    65    1
    68    25    66    1
    69    26    27    1
    70    26    30    1
    71    26    31    1
    72    27    67    1
    73    27    68    1
    74    28    69    1
    75    28    70    1
    76    28    71    1
    77    29    72    1
    78    29    73    1
    79    29    74    1
    80    30    76    1
    81    30    77    1
    82    30    78    1
    83    31    79    1
    84    31    80    1
    85    31    81    1
