@<TRIPOS>MOLECULE
IMPHY000528
 41 45 0 0 0
SMALL
GASTEIGER

@<TRIPOS>ATOM
      1 C          -4.7521    2.4010    0.0000 C.ar    1  UNL1        0.2020
      2 C          -4.7521    1.8010    0.0000 C.ar    1  UNL1        0.0843
      3 C          -4.2354    1.5010    0.0000 C.ar    1  UNL1        0.2050
      4 C          -3.7146    1.8010    0.0000 C.ar    1  UNL1        0.1156
      5 C          -3.7146    2.4010    0.0000 C.ar    1  UNL1        0.1549
      6 C          -4.2354    2.7010    0.0000 C.ar    1  UNL1        0.0798
      7 C          -3.1937    1.5010    0.0000 C.ar    1  UNL1        0.2384
      8 C          -2.6771    1.8010    0.0000 C.ar    1  UNL1        0.2144
      9 C          -2.6771    2.4010    0.0000 C.ar    1  UNL1        0.1822
     10 O          -3.1937    2.7010    0.0000 O.2     1  UNL1       -0.4500
     11 C          -2.1563    2.7010    0.0000 C.ar    1  UNL1        0.0379
     12 C          -1.6354    2.4010    0.0000 C.ar    1  UNL1        0.0064
     13 C          -1.1146    2.7010    0.0000 C.ar    1  UNL1        0.0421
     14 C          -1.1146    3.3010    0.0000 C.ar    1  UNL1        0.1957
     15 C          -1.6354    3.6010    0.0000 C.ar    1  UNL1        0.0421
     16 C          -2.1563    3.3010    0.0000 C.ar    1  UNL1        0.0064
     17 O          -0.5979    3.6010    0.0000 O.3     1  UNL1       -0.2866
     18 O          -3.1937    0.9010    0.0000 O.2     1  UNL1       -0.2830
     19 O          -4.2354    0.9010    0.0000 O.3     1  UNL1       -0.2862
     20 O          -5.2729    2.7010    0.0000 O.3     1  UNL1       -0.2864
     21 O          -2.1563    1.5010    0.0000 O.3     1  UNL1       -0.4441
     22 C          -2.1563    0.9010    0.0000 C.3     1  UNL1        0.3187
     23 O          -2.6771    0.6010    0.0000 O.3     1  UNL1       -0.3158
     24 C          -2.6771    0.0010    0.0000 C.3     1  UNL1        0.1845
     25 C          -2.1563   -0.2990    0.0000 C.3     1  UNL1        0.2144
     26 C          -1.6354    0.0010    0.0000 C.3     1  UNL1        0.2179
     27 C          -1.6354    0.6010    0.0000 C.3     1  UNL1        0.2203
     28 O          -1.1146    0.9010    0.0000 O.3     1  UNL1       -0.3218
     29 O          -1.1146   -0.2990    0.0000 O.3     1  UNL1       -0.2175
     30 O          -2.1563   -0.8990    0.0000 O.3     1  UNL1       -0.2176
     31 C          -3.1937   -0.2990    0.0000 C.3     1  UNL1        0.2142
     32 O          -3.1937   -0.8990    0.0000 O.3     1  UNL1       -0.2176
     33 C          -0.5938    1.2010    0.0000 C.3     1  UNL1        0.2697
     34 O          -0.0771    0.9010    0.0000 O.3     1  UNL1       -0.3257
     35 C           0.4437    1.2010    0.0000 C.3     1  UNL1        0.1803
     36 C           0.4437    1.8010    0.0000 C.3     1  UNL1        0.2143
     37 C          -0.0771    2.1010    0.0000 C.3     1  UNL1        0.2198
     38 C          -0.5938    1.8010    0.0000 C.3     1  UNL1        0.2406
     39 O          -1.1146    2.1010    0.0000 O.3     1  UNL1       -0.2149
     40 O          -0.0771    2.6969    0.0000 O.3     1  UNL1       -0.2174
     41 O           0.9604    2.1010    0.0000 O.3     1  UNL1       -0.2176
@<TRIPOS>BOND
     1     1     2   ar
     2     1    20    1
     3     2     3   ar
     4     3     4   ar
     5     3    19    1
     6     4     5   ar
     7     4     7   ar
     8     5     6   ar
     9     6     1   ar
    10     7     8   ar
    11     7    18    2
    12     8     9   ar
    13     8    21    1
    14     9    10   ar
    15     9    11    1
    16    10     5   ar
    17    11    12   ar
    18    12    13   ar
    19    13    14   ar
    20    14    15   ar
    21    14    17    1
    22    15    16   ar
    23    16    11   ar
    24    22    23    1
    25    22    21    1
    26    23    24    1
    27    24    25    1
    28    24    31    1
    29    25    26    1
    30    25    30    1
    31    26    27    1
    32    26    29    1
    33    27    22    1
    34    27    28    1
    35    31    32    1
    36    33    28    1
    37    33    34    1
    38    34    35    1
    39    35    36    1
    40    36    37    1
    41    36    41    1
    42    37    38    1
    43    37    40    1
    44    38    33    1
    45    38    39    1
