@<TRIPOS>MOLECULE
IMPHY015659
 23 23 0 0 0
SMALL
GASTEIGER

@<TRIPOS>ATOM
      1 O           5.1350    1.0000    0.0000 O.3     1  UNL1       -0.4614
      2 O           3.4030    1.0000    0.0000 O.2     1  UNL1       -0.2449
      3 N           2.5369   -0.5000    0.0000 N.pl3   1  UNL1       -0.3573
      4 C           4.2690   -0.5000    0.0000 C.ar    1  UNL1        0.0795
      5 C           3.4030   -1.0000    0.0000 C.ar    1  UNL1        0.0387
      6 C           5.1350   -1.0000    0.0000 C.ar    1  UNL1       -0.0460
      7 C           3.4030   -2.0000    0.0000 C.ar    1  UNL1       -0.0402
      8 C           4.2690    0.5000    0.0000 C.2     1  UNL1        0.3410
      9 C           5.1350   -2.0000    0.0000 C.ar    1  UNL1       -0.0609
     10 C           5.1350    2.0000    0.0000 C.3     1  UNL1        0.0900
     11 C           4.2690   -2.5000    0.0000 C.ar    1  UNL1       -0.0600
     12 C           6.0010    2.5000    0.0000 C.3     1  UNL1       -0.0306
     13 H           5.6720   -0.6900    0.0000 H       1  UNL1        0.0626
     14 H           2.8660   -2.3100    0.0000 H       1  UNL1        0.0636
     15 H           4.9230    2.5826    0.0000 H       1  UNL1        0.0695
     16 H           4.5244    1.8923    0.0000 H       1  UNL1        0.0695
     17 H           5.6720   -2.3100    0.0000 H       1  UNL1        0.0618
     18 H           4.2690   -3.1200    0.0000 H       1  UNL1        0.0618
     19 H           6.3110    1.9631    0.0000 H       1  UNL1        0.0262
     20 H           6.5380    2.8100    0.0000 H       1  UNL1        0.0262
     21 H           5.6910    3.0369    0.0000 H       1  UNL1        0.0262
     22 H           2.0000   -0.8100    0.0000 H       1  UNL1        0.1423
     23 H           2.5369    0.1200    0.0000 H       1  UNL1        0.1423
@<TRIPOS>BOND
     1     1     8    1
     2     1    10    1
     3     2     8    2
     4     3     5    1
     5     3    22    1
     6     3    23    1
     7     4     5   ar
     8     4     6   ar
     9     4     8    1
    10     5     7   ar
    11     6     9   ar
    12     6    13    1
    13     7    11   ar
    14     7    14    1
    15     9    11   ar
    16     9    17    1
    17    10    12    1
    18    10    15    1
    19    10    16    1
    20    11    18    1
    21    12    19    1
    22    12    20    1
    23    12    21    1
