@<TRIPOS>MOLECULE
IMPHY002555
 69 72 0 0 0
SMALL
GASTEIGER

@<TRIPOS>ATOM
      1 O           3.9061   -0.7984    0.0000 O.3     1  UNL1       -0.4811
      2 O           7.4260   -0.7984    0.0000 O.2     1  UNL1       -0.4537
      3 O           5.6660    2.2363    0.0000 O.3     1  UNL1       -0.5052
      4 O           7.4144    2.2709    0.0000 O.2     1  UNL1       -0.2866
      5 O           8.3244   -2.2845    0.0000 O.3     1  UNL1       -0.5059
      6 O          11.7961   -0.2979    0.0000 O.3     1  UNL1       -0.5033
      7 O          11.7884   -2.2979    0.0000 O.3     1  UNL1       -0.5032
      8 C           3.0000   -0.2846    0.0000 C.3     1  UNL1        0.1235
      9 C           4.8000   -0.2637    0.0000 C.ar    1  UNL1        0.1393
     10 C           5.6660   -0.7637    0.0000 C.ar    1  UNL1        0.0417
     11 C           4.8000    0.7363    0.0000 C.ar    1  UNL1        0.0591
     12 C           6.5320   -0.2637    0.0000 C.ar    1  UNL1        0.1498
     13 C           6.5320    0.7363    0.0000 C.ar    1  UNL1        0.1066
     14 C           5.6660    1.2363    0.0000 C.ar    1  UNL1        0.1418
     15 C           3.0000    0.7571    0.0000 C.2     1  UNL1       -0.0408
     16 C           3.9061    1.2709    0.0000 C.2     1  UNL1       -0.0478
     17 C           5.6660   -1.7637    0.0000 C.3     1  UNL1       -0.0022
     18 C           2.0000   -0.2884    0.0000 C.3     1  UNL1       -0.0215
     19 C           2.5033   -1.1525    0.0000 C.3     1  UNL1       -0.0215
     20 C           8.3321    0.7571    0.0000 C.ar    1  UNL1        0.0467
     21 C           7.4260    1.2709    0.0000 C.ar    1  UNL1        0.2001
     22 C           8.3321   -0.2846    0.0000 C.ar    1  UNL1        0.1463
     23 C           9.1962    1.2604    0.0000 C.3     1  UNL1       -0.0021
     24 C           4.8000   -2.2637    0.0000 C.2     1  UNL1       -0.0807
     25 C           9.1962   -0.7879    0.0000 C.ar    1  UNL1        0.0627
     26 C           9.1923    2.2604    0.0000 C.2     1  UNL1       -0.0807
     27 C           4.8000   -3.2637    0.0000 C.2     1  UNL1       -0.0793
     28 C           9.1923   -1.7879    0.0000 C.ar    1  UNL1        0.1312
     29 C          10.0641   -0.2912    0.0000 C.ar    1  UNL1       -0.0023
     30 C          10.0564    2.7637    0.0000 C.2     1  UNL1       -0.0793
     31 C          10.9282   -0.7946    0.0000 C.ar    1  UNL1        0.1591
     32 C          10.0564   -2.2912    0.0000 C.ar    1  UNL1        0.0257
     33 C           3.9340   -3.7637    0.0000 C.3     1  UNL1       -0.0440
     34 C           5.6660   -3.7637    0.0000 C.3     1  UNL1       -0.0440
     35 C          10.9243   -1.7946    0.0000 C.ar    1  UNL1        0.1618
     36 C          10.0525    3.7637    0.0000 C.3     1  UNL1       -0.0440
     37 C          10.9243    2.2671    0.0000 C.3     1  UNL1       -0.0440
     38 H           2.4643    1.0692    0.0000 H       1  UNL1        0.0611
     39 H           3.9132    1.8909    0.0000 H       1  UNL1        0.0624
     40 H           5.8781   -2.3463    0.0000 H       1  UNL1        0.0358
     41 H           6.2766   -1.6561    0.0000 H       1  UNL1        0.0358
     42 H           1.9652   -0.8446    0.0000 H       1  UNL1        0.0271
     43 H           2.1954   -1.6906    0.0000 H       1  UNL1        0.0271
     44 H           3.0415   -1.4604    0.0000 H       1  UNL1        0.0271
     45 H           1.9976    0.3316    0.0000 H       1  UNL1        0.0271
     46 H           1.3800   -0.2908    0.0000 H       1  UNL1        0.0271
     47 H           2.0024   -0.9084    0.0000 H       1  UNL1        0.0271
     48 H           9.4105    0.6786    0.0000 H       1  UNL1        0.0358
     49 H           9.8063    1.3704    0.0000 H       1  UNL1        0.0358
     50 H           4.2631   -1.9537    0.0000 H       1  UNL1        0.0575
     51 H           5.1291    2.5463    0.0000 H       1  UNL1        0.2922
     52 H           8.6542    2.5683    0.0000 H       1  UNL1        0.0575
     53 H          10.0665    0.3288    0.0000 H       1  UNL1        0.0663
     54 H          10.0540   -2.9112    0.0000 H       1  UNL1        0.0692
     55 H           5.3560   -4.3007    0.0000 H       1  UNL1        0.0274
     56 H           6.2030   -4.0737    0.0000 H       1  UNL1        0.0274
     57 H           5.9760   -3.2268    0.0000 H       1  UNL1        0.0274
     58 H           3.6240   -3.2268    0.0000 H       1  UNL1        0.0274
     59 H           3.3970   -4.0737    0.0000 H       1  UNL1        0.0274
     60 H           4.2440   -4.3007    0.0000 H       1  UNL1        0.0274
     61 H          10.6725    3.7661    0.0000 H       1  UNL1        0.0274
     62 H          10.6164    1.7290    0.0000 H       1  UNL1        0.0274
     63 H          11.4625    1.9592    0.0000 H       1  UNL1        0.0274
     64 H          11.2323    2.8052    0.0000 H       1  UNL1        0.0274
     65 H          10.0501    4.3837    0.0000 H       1  UNL1        0.0274
     66 H           9.4325    3.7613    0.0000 H       1  UNL1        0.0274
     67 H           8.3220   -2.9045    0.0000 H       1  UNL1        0.2922
     68 H          12.3319   -0.6100    0.0000 H       1  UNL1        0.2923
     69 H          11.7860   -2.9179    0.0000 H       1  UNL1        0.2923
@<TRIPOS>BOND
     1     1     8    1
     2     1     9    1
     3     2    12   ar
     4     2    22   ar
     5     3    14    1
     6     3    51    1
     7     4    21    2
     8     5    28    1
     9     5    67    1
    10     6    31    1
    11     6    68    1
    12     7    35    1
    13     7    69    1
    14     8    15    1
    15     8    18    1
    16     8    19    1
    17     9    10   ar
    18     9    11   ar
    19    10    12   ar
    20    10    17    1
    21    11    14   ar
    22    11    16    1
    23    12    13   ar
    24    13    14   ar
    25    13    21   ar
    26    15    16    2
    27    15    38    1
    28    16    39    1
    29    17    24    1
    30    17    40    1
    31    17    41    1
    32    18    45    1
    33    18    46    1
    34    18    47    1
    35    19    42    1
    36    19    43    1
    37    19    44    1
    38    20    21   ar
    39    20    22   ar
    40    20    23    1
    41    22    25    1
    42    23    26    1
    43    23    48    1
    44    23    49    1
    45    24    27    2
    46    24    50    1
    47    25    28   ar
    48    25    29   ar
    49    26    30    2
    50    26    52    1
    51    27    33    1
    52    27    34    1
    53    28    32   ar
    54    29    31   ar
    55    29    53    1
    56    30    36    1
    57    30    37    1
    58    31    35   ar
    59    32    35   ar
    60    32    54    1
    61    33    58    1
    62    33    59    1
    63    33    60    1
    64    34    55    1
    65    34    56    1
    66    34    57    1
    67    36    61    1
    68    36    65    1
    69    36    66    1
    70    37    62    1
    71    37    63    1
    72    37    64    1
