@<TRIPOS>MOLECULE
IMPHY006901
 86 90 0 0 0
SMALL
GASTEIGER

@<TRIPOS>ATOM
      1 O           7.0628    2.0442    0.0000 O.3     1  UNL1       -0.3915
      2 O           6.1847   -3.5250    0.0000 O.3     1  UNL1       -0.3915
      3 O           8.2352    2.1101    0.0000 O.3     1  UNL1       -0.3675
      4 O           2.5357   -2.5081    0.0000 O.3     1  UNL1       -0.3912
      5 C           7.0628   -0.9558    0.0000 C.3     1  UNL1       -0.0206
      6 C           7.9288   -0.4558    0.0000 C.3     1  UNL1       -0.0208
      7 C           6.1968   -0.4558    0.0000 C.3     1  UNL1       -0.0269
      8 C           5.2868   -0.9626    0.0000 C.3     1  UNL1       -0.0228
      9 C           7.9288    0.5442    0.0000 C.3     1  UNL1       -0.0036
     10 C           5.2787   -2.0042    0.0000 C.3     1  UNL1       -0.0018
     11 C           8.8750    0.8490    0.0000 C.3     1  UNL1       -0.0064
     12 C           7.0789   -1.9973    0.0000 C.3     1  UNL1       -0.0204
     13 C           6.1968    0.5442    0.0000 C.3     1  UNL1       -0.0227
     14 C           8.8750   -0.7605    0.0000 C.3     1  UNL1       -0.0464
     15 C           7.0628    1.0442    0.0000 C.3     1  UNL1        0.0592
     16 C           6.1808   -2.5250    0.0000 C.3     1  UNL1        0.0597
     17 C           9.4586    0.0442    0.0000 C.3     1  UNL1       -0.0467
     18 C           4.3433   -2.5539    0.0000 C.3     1  UNL1       -0.0033
     19 C           4.3599   -0.3985    0.0000 C.3     1  UNL1       -0.0446
     20 C           7.7056   -1.7218    0.0000 C.3     1  UNL1       -0.0587
     21 C           8.2709   -1.3954    0.0000 C.3     1  UNL1       -0.0587
     22 C           9.1857    1.7995    0.0000 C.3     1  UNL1        0.0706
     23 C           5.2945    0.0374    0.0000 C.3     1  UNL1       -0.0589
     24 C           3.4037   -2.0114    0.0000 C.3     1  UNL1        0.0607
     25 C           3.4120   -0.9265    0.0000 C.3     1  UNL1       -0.0258
     26 C           3.8467   -3.4219    0.0000 C.3     1  UNL1       -0.0571
     27 C           4.8466   -3.4180    0.0000 C.3     1  UNL1       -0.0571
     28 C           9.9300    2.4673    0.0000 C.3     1  UNL1       -0.0236
     29 C           9.8536    1.0552    0.0000 C.3     1  UNL1       -0.0355
     30 C           9.7238    3.4458    0.0000 C.3     1  UNL1       -0.0479
     31 C           8.0290    3.0886    0.0000 C.3     1  UNL1        0.0647
     32 C           8.7733    3.7565    0.0000 C.3     1  UNL1       -0.0242
     33 C           7.3611    3.8330    0.0000 C.3     1  UNL1       -0.0361
     34 C           7.0505    2.8824    0.0000 C.3     1  UNL1       -0.0361
     35 H           6.9329   -0.0308    0.0000 H       1  UNL1        0.0312
     36 H           8.0188    1.3895    0.0000 H       1  UNL1        0.0335
     37 H           5.2820   -2.8542    0.0000 H       1  UNL1        0.0337
     38 H           9.7148    0.9808    0.0000 H       1  UNL1        0.0332
     39 H           7.2969   -2.5777    0.0000 H       1  UNL1        0.0296
     40 H           7.6880   -1.8818    0.0000 H       1  UNL1        0.0296
     41 H           5.9847    1.1268    0.0000 H       1  UNL1        0.0293
     42 H           5.5862    0.4366    0.0000 H       1  UNL1        0.0293
     43 H           8.6240   -1.3274    0.0000 H       1  UNL1        0.0271
     44 H           9.4124   -1.0697    0.0000 H       1  UNL1        0.0271
     45 H           7.5997    1.3542    0.0000 H       1  UNL1        0.0596
     46 H           6.7195   -2.8319    0.0000 H       1  UNL1        0.0596
     47 H           9.9195   -0.3705    0.0000 H       1  UNL1        0.0269
     48 H           9.9195    0.4590    0.0000 H       1  UNL1        0.0269
     49 H           4.7681    0.0681    0.0000 H       1  UNL1        0.0271
     50 H           3.9700    0.0835    0.0000 H       1  UNL1        0.0271
     51 H           7.2306   -2.1203    0.0000 H       1  UNL1        0.0235
     52 H           8.1041   -2.1968    0.0000 H       1  UNL1        0.0235
     53 H           8.1805   -1.3233    0.0000 H       1  UNL1        0.0235
     54 H           7.6884   -1.6075    0.0000 H       1  UNL1        0.0235
     55 H           8.4830   -1.9780    0.0000 H       1  UNL1        0.0235
     56 H           8.8535   -1.1833    0.0000 H       1  UNL1        0.0235
     57 H           5.9145    0.0326    0.0000 H       1  UNL1        0.0235
     58 H           5.2993    0.6573    0.0000 H       1  UNL1        0.0235
     59 H           4.6745    0.0421    0.0000 H       1  UNL1        0.0235
     60 H           3.4025   -2.6314    0.0000 H       1  UNL1        0.0599
     61 H           3.2075   -0.3412    0.0000 H       1  UNL1        0.0290
     62 H           2.8004   -1.0279    0.0000 H       1  UNL1        0.0290
     63 H           3.3085   -3.1140    0.0000 H       1  UNL1        0.0236
     64 H           4.3109   -3.7301    0.0000 H       1  UNL1        0.0236
     65 H           5.1587   -3.9538    0.0000 H       1  UNL1        0.0236
     66 H           5.3824   -3.1060    0.0000 H       1  UNL1        0.0236
     67 H           3.5387   -3.9600    0.0000 H       1  UNL1        0.0236
     68 H           4.3848   -3.7298    0.0000 H       1  UNL1        0.0236
     69 H          10.2576    1.9410    0.0000 H       1  UNL1        0.0293
     70 H          10.5053    2.6986    0.0000 H       1  UNL1        0.0293
     71 H           6.5259    2.3542    0.0000 H       1  UNL1        0.2098
     72 H           6.7228   -3.8330    0.0000 H       1  UNL1        0.2098
     73 H           9.3921    0.6411    0.0000 H       1  UNL1        0.0257
     74 H          10.2676    0.5937    0.0000 H       1  UNL1        0.0257
     75 H          10.3150    1.4692    0.0000 H       1  UNL1        0.0257
     76 H          10.3434    3.4664    0.0000 H       1  UNL1        0.0267
     77 H           9.8111    4.0597    0.0000 H       1  UNL1        0.0267
     78 H           2.0000   -2.1960    0.0000 H       1  UNL1        0.2098
     79 H           9.0653    4.3034    0.0000 H       1  UNL1        0.0293
     80 H           8.2854    4.1390    0.0000 H       1  UNL1        0.0293
     81 H           7.8226    4.2470    0.0000 H       1  UNL1        0.0257
     82 H           6.9471    4.2944    0.0000 H       1  UNL1        0.0257
     83 H           6.8996    3.4189    0.0000 H       1  UNL1        0.0257
     84 H           6.9226    3.4891    0.0000 H       1  UNL1        0.0257
     85 H           6.4438    2.7546    0.0000 H       1  UNL1        0.0257
     86 H           7.1783    2.2758    0.0000 H       1  UNL1        0.0257
@<TRIPOS>BOND
     1    15     1    1
     2     1    71    1
     3    16     2    1
     4     2    72    1
     5     3    22    1
     6     3    31    1
     7    24     4    1
     8     4    78    1
     9     5     6    1
    10     5     7    1
    11     5    12    1
    12     5    20    1
    13     6     9    1
    14     6    14    1
    15     6    21    1
    16     7     8    1
    17     7    13    1
    18     7    35    1
    19     8    10    1
    20     8    19    1
    21     8    23    1
    22     9    11    1
    23     9    15    1
    24     9    36    1
    25    10    16    1
    26    10    18    1
    27    10    37    1
    28    11    17    1
    29    11    22    1
    30    11    38    1
    31    12    16    1
    32    12    39    1
    33    12    40    1
    34    13    15    1
    35    13    41    1
    36    13    42    1
    37    14    17    1
    38    14    43    1
    39    14    44    1
    40    15    45    1
    41    16    46    1
    42    17    47    1
    43    17    48    1
    44    18    24    1
    45    18    26    1
    46    18    27    1
    47    19    25    1
    48    19    49    1
    49    19    50    1
    50    20    51    1
    51    20    52    1
    52    20    53    1
    53    21    54    1
    54    21    55    1
    55    21    56    1
    56    22    28    1
    57    22    29    1
    58    23    57    1
    59    23    58    1
    60    23    59    1
    61    24    25    1
    62    24    60    1
    63    25    61    1
    64    25    62    1
    65    26    63    1
    66    26    67    1
    67    26    68    1
    68    27    64    1
    69    27    65    1
    70    27    66    1
    71    28    30    1
    72    28    69    1
    73    28    70    1
    74    29    73    1
    75    29    74    1
    76    29    75    1
    77    30    32    1
    78    30    76    1
    79    30    77    1
    80    31    32    1
    81    31    33    1
    82    31    34    1
    83    32    79    1
    84    32    80    1
    85    33    81    1
    86    33    82    1
    87    33    83    1
    88    34    84    1
    89    34    85    1
    90    34    86    1
