@<TRIPOS>MOLECULE
IMPHY006459
 113 118 0 0 0
SMALL
GASTEIGER

@<TRIPOS>ATOM
      1 O           5.1483   -5.8315    0.0000 O.3     1  UNL1       -0.3684
      2 O           6.3178   -4.2219    0.0000 O.3     1  UNL1       -0.4528
      3 O           7.0057   -3.3695    0.0000 O.3     1  UNL1       -0.4545
      4 O           7.4821   -2.0230    0.0000 O.3     1  UNL1       -0.3839
      5 O           2.4962   -3.1749    0.0000 O.3     1  UNL1       -0.3907
      6 O           3.5446   -0.3921    0.0000 O.3     1  UNL1       -0.4493
      7 O           2.8690   -2.0230    0.0000 O.2     1  UNL1       -0.2924
      8 O           7.5875    0.3889    0.0000 O.3     1  UNL1       -0.4550
      9 O           7.6038   -5.3822    0.0000 O.2     1  UNL1       -0.2511
     10 O           8.4245   -2.3761    0.0000 O.2     1  UNL1       -0.2449
     11 O           4.7693    0.8327    0.0000 O.2     1  UNL1       -0.2511
     12 O           6.3628    1.6137    0.0000 O.2     1  UNL1       -0.2478
     13 O           9.0017    1.8031    0.0000 O.3     1  UNL1       -0.3786
     14 O           7.2593    4.9597    0.0000 O.2     1  UNL1       -0.2706
     15 N           6.8110    3.2867    0.0000 N.am    1  UNL1       -0.3017
     16 C           5.1755   -3.3296    0.0000 C.3     1  UNL1        0.0580
     17 C           5.3274   -4.3601    0.0000 C.3     1  UNL1        0.1696
     18 C           4.2517   -2.9469    0.0000 C.3     1  UNL1        0.0662
     19 C           4.5059   -5.0006    0.0000 C.3     1  UNL1        0.1035
     20 C           6.0994   -2.9469    0.0000 C.3     1  UNL1        0.1404
     21 C           6.4821   -2.0230    0.0000 C.3     1  UNL1        0.1157
     22 C           3.4156   -3.5682    0.0000 C.3     1  UNL1        0.0704
     23 C           3.5436   -4.6020    0.0000 C.3     1  UNL1        0.0043
     24 C           6.0994   -1.0992    0.0000 C.3     1  UNL1        0.0227
     25 C           5.9766   -5.1857    0.0000 C.3     1  UNL1        0.0909
     26 C           3.8690   -2.0230    0.0000 C.2     1  UNL1        0.1866
     27 C           7.1552   -1.2814    0.0000 C.3     1  UNL1        0.0215
     28 C           5.1755   -0.7165    0.0000 C.2     1  UNL1       -0.0114
     29 C           3.3278   -2.5642    0.0000 C.3     1  UNL1       -0.0498
     30 C           4.2517   -1.0992    0.0000 C.3     1  UNL1        0.1831
     31 C           6.8804   -0.3182    0.0000 C.3     1  UNL1        0.1271
     32 C           5.9172   -0.0434    0.0000 C.2     1  UNL1       -0.0288
     33 C           6.3971    0.0116    0.0000 C.3     1  UNL1       -0.0532
     34 C           7.2102   -0.8015    0.0000 C.3     1  UNL1       -0.0532
     35 C           5.6897    0.9304    0.0000 C.3     1  UNL1       -0.0399
     36 C           6.6259   -5.1733    0.0000 C.2     1  UNL1        0.3046
     37 C           8.0019   -3.2825    0.0000 C.2     1  UNL1        0.3395
     38 C           5.9560   -5.9158    0.0000 C.3     1  UNL1        0.0333
     39 C           3.8034    0.5739    0.0000 C.2     1  UNL1        0.3049
     40 C           7.3287    1.3549    0.0000 C.2     1  UNL1        0.3388
     41 C           8.5755   -4.1015    0.0000 C.ar    1  UNL1        0.0590
     42 C           8.0358    2.0620    0.0000 C.3     1  UNL1        0.1740
     43 C           3.0963    1.2810    0.0000 C.3     1  UNL1        0.0333
     44 C           9.5717   -4.0143    0.0000 C.ar    1  UNL1       -0.0478
     45 C           8.1530   -5.0079    0.0000 C.ar    1  UNL1       -0.0478
     46 C           7.7770    3.0279    0.0000 C.3     1  UNL1        0.0849
     47 C          10.1453   -4.8334    0.0000 C.ar    1  UNL1       -0.0610
     48 C           8.7266   -5.8270    0.0000 C.ar    1  UNL1       -0.0610
     49 C           9.7228   -5.7398    0.0000 C.ar    1  UNL1       -0.0617
     50 C           8.4841    3.7350    0.0000 C.ar    1  UNL1       -0.0242
     51 C           9.4500    3.4762    0.0000 C.ar    1  UNL1       -0.0567
     52 C           8.2253    4.7009    0.0000 C.ar    1  UNL1       -0.0567
     53 C           6.5522    4.2526    0.0000 C.2     1  UNL1        0.2400
     54 C          10.1571    4.1833    0.0000 C.ar    1  UNL1       -0.0614
     55 C           8.9324    5.4080    0.0000 C.ar    1  UNL1       -0.0614
     56 C           5.5863    4.5114    0.0000 C.2     1  UNL1        0.0071
     57 C           9.8983    5.1492    0.0000 C.ar    1  UNL1       -0.0617
     58 C           4.8792    3.8043    0.0000 C.3     1  UNL1       -0.0351
     59 C           5.3275    5.4774    0.0000 C.2     1  UNL1       -0.0793
     60 C           4.3616    5.7362    0.0000 C.3     1  UNL1       -0.0461
     61 H           5.9608   -3.6549    0.0000 H       1  UNL1        0.0388
     62 H           3.9897   -5.6758    0.0000 H       1  UNL1        0.0638
     63 H           6.6773   -2.7222    0.0000 H       1  UNL1        0.0768
     64 H           2.9201   -3.9409    0.0000 H       1  UNL1        0.0604
     65 H           2.9243   -4.5717    0.0000 H       1  UNL1        0.0317
     66 H           3.4078   -5.2069    0.0000 H       1  UNL1        0.0317
     67 H           6.3585   -5.6742    0.0000 H       1  UNL1        0.0601
     68 H           6.4645   -4.8032    0.0000 H       1  UNL1        0.0601
     69 H           7.5297   -1.7755    0.0000 H       1  UNL1        0.0334
     70 H           7.7099   -1.0043    0.0000 H       1  UNL1        0.0334
     71 H           3.5650   -1.9914    0.0000 H       1  UNL1        0.0240
     72 H           2.7550   -2.3270    0.0000 H       1  UNL1        0.0240
     73 H           3.0905   -3.1370    0.0000 H       1  UNL1        0.0240
     74 H           4.3726   -0.4911    0.0000 H       1  UNL1        0.0864
     75 H           7.4806   -0.4738    0.0000 H       1  UNL1        0.0783
     76 H           6.9959   -0.1488    0.0000 H       1  UNL1        0.0239
     77 H           6.5575    0.6105    0.0000 H       1  UNL1        0.0239
     78 H           5.7982    0.1721    0.0000 H       1  UNL1        0.0239
     79 H           7.3707   -1.4004    0.0000 H       1  UNL1        0.0239
     80 H           7.8091   -0.6411    0.0000 H       1  UNL1        0.0239
     81 H           7.0498   -0.2026    0.0000 H       1  UNL1        0.0239
     82 H           7.7921   -1.4861    0.0000 H       1  UNL1        0.2104
     83 H           2.0000   -3.5466    0.0000 H       1  UNL1        0.2098
     84 H           6.2935    1.0715    0.0000 H       1  UNL1        0.0276
     85 H           5.5487    1.5342    0.0000 H       1  UNL1        0.0276
     86 H           5.0860    0.7894    0.0000 H       1  UNL1        0.0276
     87 H           5.4957   -5.5004    0.0000 H       1  UNL1        0.0342
     88 H           5.5406   -6.3761    0.0000 H       1  UNL1        0.0342
     89 H           6.4163   -6.3311    0.0000 H       1  UNL1        0.0342
     90 H           8.4742    2.5004    0.0000 H       1  UNL1        0.0733
     91 H           3.5347    1.7194    0.0000 H       1  UNL1        0.0342
     92 H           2.6579    1.7194    0.0000 H       1  UNL1        0.0342
     93 H           2.6579    0.8426    0.0000 H       1  UNL1        0.0342
     94 H           9.8337   -3.4524    0.0000 H       1  UNL1        0.0626
     95 H           7.5353   -5.0620    0.0000 H       1  UNL1        0.0626
     96 H           7.6165    3.6268    0.0000 H       1  UNL1        0.0580
     97 H          10.7630   -4.7793    0.0000 H       1  UNL1        0.0618
     98 H           8.4646   -6.3889    0.0000 H       1  UNL1        0.0618
     99 H           9.1622    1.2043    0.0000 H       1  UNL1        0.2106
    100 H          10.0784   -6.2476    0.0000 H       1  UNL1        0.0618
    101 H           6.3726    2.8483    0.0000 H       1  UNL1        0.1497
    102 H           9.6105    2.8773    0.0000 H       1  UNL1        0.0621
    103 H           7.6264    4.8614    0.0000 H       1  UNL1        0.0621
    104 H          10.7560    4.0228    0.0000 H       1  UNL1        0.0618
    105 H           8.7719    6.0069    0.0000 H       1  UNL1        0.0618
    106 H          10.3367    5.5876    0.0000 H       1  UNL1        0.0618
    107 H           4.4408    4.2427    0.0000 H       1  UNL1        0.0279
    108 H           4.4408    3.3659    0.0000 H       1  UNL1        0.0279
    109 H           5.3176    3.3659    0.0000 H       1  UNL1        0.0279
    110 H           5.7659    5.9158    0.0000 H       1  UNL1        0.0573
    111 H           4.5220    6.3351    0.0000 H       1  UNL1        0.0272
    112 H           3.7627    5.8967    0.0000 H       1  UNL1        0.0272
    113 H           4.2011    5.1373    0.0000 H       1  UNL1        0.0272
@<TRIPOS>BOND
     1     1    19    1
     2     1    25    1
     3    17     2    1
     4     2    36    1
     5    20     3    1
     6     3    37    1
     7    21     4    1
     8     4    82    1
     9    22     5    1
    10     5    83    1
    11    30     6    1
    12     6    39    1
    13     7    26    2
    14    31     8    1
    15     8    40    1
    16     9    36    2
    17    10    37    2
    18    11    39    2
    19    12    40    2
    20    42    13    1
    21    13    99    1
    22    14    53    2
    23    46    15    1
    24    15    53   am
    25    15   101    1
    26    16    17    1
    27    16    18    1
    28    16    20    1
    29    16    61    1
    30    17    19    1
    31    17    25    1
    32    18    22    1
    33    18    26    1
    34    18    29    1
    35    19    23    1
    36    19    62    1
    37    20    21    1
    38    20    63    1
    39    21    24    1
    40    21    27    1
    41    22    23    1
    42    22    64    1
    43    23    65    1
    44    23    66    1
    45    24    28    1
    46    24    33    1
    47    24    34    1
    48    25    67    1
    49    25    68    1
    50    26    30    1
    51    27    31    1
    52    27    69    1
    53    27    70    1
    54    28    30    1
    55    28    32    2
    56    29    71    1
    57    29    72    1
    58    29    73    1
    59    30    74    1
    60    31    32    1
    61    31    75    1
    62    32    35    1
    63    33    76    1
    64    33    77    1
    65    33    78    1
    66    34    79    1
    67    34    80    1
    68    34    81    1
    69    35    84    1
    70    35    85    1
    71    35    86    1
    72    36    38    1
    73    37    41    1
    74    38    87    1
    75    38    88    1
    76    38    89    1
    77    39    43    1
    78    40    42    1
    79    41    44   ar
    80    41    45   ar
    81    42    46    1
    82    42    90    1
    83    43    91    1
    84    43    92    1
    85    43    93    1
    86    44    47   ar
    87    44    94    1
    88    45    48   ar
    89    45    95    1
    90    46    50    1
    91    46    96    1
    92    47    49   ar
    93    47    97    1
    94    48    49   ar
    95    48    98    1
    96    49   100    1
    97    50    51   ar
    98    50    52   ar
    99    51    54   ar
   100    51   102    1
   101    52    55   ar
   102    52   103    1
   103    53    56    1
   104    54    57   ar
   105    54   104    1
   106    55    57   ar
   107    55   105    1
   108    56    58    1
   109    56    59    2
   110    57   106    1
   111    58   107    1
   112    58   108    1
   113    58   109    1
   114    59    60    1
   115    59   110    1
   116    60   111    1
   117    60   112    1
   118    60   113    1
