@<TRIPOS>MOLECULE
IMPHY001461
 43 45 0 0 0
SMALL
GASTEIGER

@<TRIPOS>ATOM
      1 O           6.2781    0.9078    0.0000 O.3     1  UNL1       -0.4557
      2 O           6.8994    2.8089    0.0000 O.3     1  UNL1       -0.3854
      3 O           7.6138   -0.5808    0.0000 O.3     1  UNL1       -0.3854
      4 O           8.8564    3.2213    0.0000 O.3     1  UNL1       -0.3864
      5 O           9.5708   -0.1683    0.0000 O.3     1  UNL1       -0.3864
      6 O          10.1921    1.7327    0.0000 O.3     1  UNL1       -0.3865
      7 O           6.6353   -0.7870    0.0000 O.2     1  UNL1       -0.2505
      8 N           4.6783   -2.8089    0.0000 N.ar    1  UNL1       -0.3604
      9 C           7.2566    1.1141    0.0000 C.3     1  UNL1        0.1594
     10 C           7.9244    0.3698    0.0000 C.3     1  UNL1        0.1228
     11 C           7.5673    2.0646    0.0000 C.3     1  UNL1        0.1228
     12 C           8.9030    0.5760    0.0000 C.3     1  UNL1        0.1129
     13 C           8.5458    2.2708    0.0000 C.3     1  UNL1        0.1129
     14 C           9.2136    1.5265    0.0000 C.3     1  UNL1        0.1119
     15 C           5.9674   -0.0427    0.0000 C.2     1  UNL1        0.3119
     16 C           4.9889   -0.2489    0.0000 C.3     1  UNL1        0.0720
     17 C           4.6783   -1.1994    0.0000 C.ar    1  UNL1       -0.0117
     18 C           3.7320   -1.5042    0.0000 C.ar    1  UNL1        0.0033
     19 C           3.7320   -2.5042    0.0000 C.ar    1  UNL1        0.0467
     20 C           5.2619   -2.0042    0.0000 C.ar    1  UNL1        0.0064
     21 C           2.8660   -1.0042    0.0000 C.ar    1  UNL1       -0.0523
     22 C           2.8660   -3.0042    0.0000 C.ar    1  UNL1       -0.0378
     23 C           2.0000   -1.5042    0.0000 C.ar    1  UNL1       -0.0611
     24 C           2.0000   -2.5042    0.0000 C.ar    1  UNL1       -0.0598
     25 H           7.0640    0.5247    0.0000 H       1  UNL1        0.0788
     26 H           8.3385   -0.0917    0.0000 H       1  UNL1        0.0658
     27 H           6.9606    1.9367    0.0000 H       1  UNL1        0.0658
     28 H           9.5096    0.7038    0.0000 H       1  UNL1        0.0647
     29 H           9.1524    2.3987    0.0000 H       1  UNL1        0.0647
     30 H           9.4062    2.1158    0.0000 H       1  UNL1        0.0647
     31 H           7.0920    3.3982    0.0000 H       1  UNL1        0.2101
     32 H           8.0279   -1.0422    0.0000 H       1  UNL1        0.2101
     33 H           9.4631    3.3492    0.0000 H       1  UNL1        0.2100
     34 H          10.1775   -0.0405    0.0000 H       1  UNL1        0.2100
     35 H          10.3847    2.3220    0.0000 H       1  UNL1        0.2100
     36 H           4.9684    0.3708    0.0000 H       1  UNL1        0.0427
     37 H           4.3751   -0.1615    0.0000 H       1  UNL1        0.0427
     38 H           5.8819   -2.0042    0.0000 H       1  UNL1        0.0810
     39 H           4.8709   -3.3982    0.0000 H       1  UNL1        0.1653
     40 H           2.8660   -0.3842    0.0000 H       1  UNL1        0.0624
     41 H           2.8660   -3.6242    0.0000 H       1  UNL1        0.0638
     42 H           1.4631   -1.1942    0.0000 H       1  UNL1        0.0618
     43 H           1.4631   -2.8142    0.0000 H       1  UNL1        0.0618
@<TRIPOS>BOND
     1     1     9    1
     2     1    15    1
     3     2    11    1
     4     2    31    1
     5     3    10    1
     6     3    32    1
     7     4    13    1
     8     4    33    1
     9     5    12    1
    10     5    34    1
    11     6    14    1
    12     6    35    1
    13     7    15    2
    14     8    19   ar
    15     8    20   ar
    16     8    39    1
    17     9    10    1
    18     9    11    1
    19     9    25    1
    20    10    12    1
    21    10    26    1
    22    11    13    1
    23    11    27    1
    24    12    14    1
    25    12    28    1
    26    13    14    1
    27    13    29    1
    28    14    30    1
    29    15    16    1
    30    16    17    1
    31    16    36    1
    32    16    37    1
    33    17    18   ar
    34    17    20   ar
    35    18    19   ar
    36    18    21   ar
    37    19    22   ar
    38    20    38    1
    39    21    23   ar
    40    21    40    1
    41    22    24   ar
    42    22    41    1
    43    23    24   ar
    44    23    42    1
    45    24    43    1
