@<TRIPOS>MOLECULE
IMPHY003798
 39 39 0 0 0
SMALL
GASTEIGER

@<TRIPOS>ATOM
      1 C           2.8660    0.4400    0.0000 C.3     1  UNL1       -0.0164
      2 C           2.0000   -0.0600    0.0000 C.3     1  UNL1       -0.0426
      3 C           3.7320   -0.0600    0.0000 C.3     1  UNL1       -0.0280
      4 C           2.0000   -1.0600    0.0000 C.3     1  UNL1       -0.0315
      5 C           2.8660    1.4400    0.0000 C.2     1  UNL1       -0.0729
      6 C           2.8660   -1.5600    0.0000 C.2     1  UNL1       -0.0765
      7 C           3.7320   -1.0600    0.0000 C.2     1  UNL1       -0.0845
      8 C           3.7320    1.9400    0.0000 C.2     1  UNL1       -0.0810
      9 C           2.0000    1.9400    0.0000 C.3     1  UNL1       -0.0435
     10 C           2.8660   -2.5600    0.0000 C.3     1  UNL1       -0.0438
     11 C           4.5981    1.4400    0.0000 C.3     1  UNL1       -0.0161
     12 C           5.4641    1.9400    0.0000 C.2     1  UNL1       -0.0815
     13 C           6.3301    1.4400    0.0000 C.2     1  UNL1       -0.0793
     14 C           7.1962    1.9400    0.0000 C.3     1  UNL1       -0.0440
     15 C           6.3301    0.4400    0.0000 C.3     1  UNL1       -0.0440
     16 H           3.4030    0.7500    0.0000 H       1  UNL1        0.0349
     17 H           1.7880    0.5226    0.0000 H       1  UNL1        0.0274
     18 H           1.3894   -0.1677    0.0000 H       1  UNL1        0.0274
     19 H           4.3426   -0.1677    0.0000 H       1  UNL1        0.0313
     20 H           3.9441    0.5226    0.0000 H       1  UNL1        0.0313
     21 H           1.3894   -0.9523    0.0000 H       1  UNL1        0.0310
     22 H           1.7880   -1.6426    0.0000 H       1  UNL1        0.0310
     23 H           4.2690   -1.3700    0.0000 H       1  UNL1        0.0572
     24 H           3.7320    2.5600    0.0000 H       1  UNL1        0.0575
     25 H           2.3100    2.4769    0.0000 H       1  UNL1        0.0274
     26 H           1.4631    2.2500    0.0000 H       1  UNL1        0.0274
     27 H           1.6900    1.4031    0.0000 H       1  UNL1        0.0274
     28 H           2.2460   -2.5600    0.0000 H       1  UNL1        0.0274
     29 H           2.8660   -3.1800    0.0000 H       1  UNL1        0.0274
     30 H           3.4860   -2.5600    0.0000 H       1  UNL1        0.0274
     31 H           4.1996    0.9651    0.0000 H       1  UNL1        0.0350
     32 H           4.9966    0.9651    0.0000 H       1  UNL1        0.0350
     33 H           5.4641    2.5600    0.0000 H       1  UNL1        0.0575
     34 H           7.5062    1.4031    0.0000 H       1  UNL1        0.0274
     35 H           7.7331    2.2500    0.0000 H       1  UNL1        0.0274
     36 H           6.8862    2.4769    0.0000 H       1  UNL1        0.0274
     37 H           5.7101    0.4400    0.0000 H       1  UNL1        0.0274
     38 H           6.3301   -0.1800    0.0000 H       1  UNL1        0.0274
     39 H           6.9501    0.4400    0.0000 H       1  UNL1        0.0274
@<TRIPOS>BOND
     1     1     2    1
     2     1     3    1
     3     1     5    1
     4     1    16    1
     5     2     4    1
     6     2    17    1
     7     2    18    1
     8     3     7    1
     9     3    19    1
    10     3    20    1
    11     4     6    1
    12     4    21    1
    13     4    22    1
    14     5     8    2
    15     5     9    1
    16     6     7    2
    17     6    10    1
    18     7    23    1
    19     8    11    1
    20     8    24    1
    21     9    25    1
    22     9    26    1
    23     9    27    1
    24    10    28    1
    25    10    29    1
    26    10    30    1
    27    11    12    1
    28    11    31    1
    29    11    32    1
    30    12    13    2
    31    12    33    1
    32    13    14    1
    33    13    15    1
    34    14    34    1
    35    14    35    1
    36    14    36    1
    37    15    37    1
    38    15    38    1
    39    15    39    1
