@<TRIPOS>MOLECULE
IMPHY012861
 86 87 0 0 0
SMALL
GASTEIGER

@<TRIPOS>ATOM
      1 O           2.3100   -3.0801    0.0000 O.3     1  UNL1       -0.3883
      2 O           7.6401   -1.5801    0.0000 O.3     1  UNL1       -0.3950
      3 O           6.7741   -6.0801    0.0000 O.2     1  UNL1       -0.2960
      4 C           4.1760   -2.5801    0.0000 C.3     1  UNL1        0.0033
      5 C           3.3100   -3.0801    0.0000 C.3     1  UNL1        0.0695
      6 C           5.0420   -3.0801    0.0000 C.3     1  UNL1       -0.0112
      7 C           3.3100   -4.0801    0.0000 C.3     1  UNL1       -0.0200
      8 C           4.6760   -1.7141    0.0000 C.3     1  UNL1       -0.0410
      9 C           5.0420   -4.0801    0.0000 C.2     1  UNL1       -0.0598
     10 C           4.1760   -4.5801    0.0000 C.3     1  UNL1       -0.0282
     11 C           3.6760   -1.7141    0.0000 C.3     1  UNL1       -0.0564
     12 C           5.9081   -2.5801    0.0000 C.3     1  UNL1       -0.0438
     13 C           2.8100   -2.2141    0.0000 C.3     1  UNL1       -0.0355
     14 C           4.1760    4.3481    0.0000 C.3     1  UNL1       -0.0255
     15 C           4.1760   -0.8481    0.0000 C.3     1  UNL1       -0.0339
     16 C           4.6760    3.4820    0.0000 C.3     1  UNL1       -0.0145
     17 C           4.6760    5.2141    0.0000 C.3     1  UNL1       -0.0347
     18 C           5.9081   -1.5801    0.0000 C.3     1  UNL1       -0.0292
     19 C           5.9081   -4.5801    0.0000 C.2     1  UNL1       -0.0117
     20 C           4.1760    2.6160    0.0000 C.3     1  UNL1       -0.0423
     21 C           5.6760    5.2141    0.0000 C.3     1  UNL1       -0.0314
     22 C           5.6760    3.4820    0.0000 C.2     1  UNL1       -0.0729
     23 C           4.6760    0.0179    0.0000 C.2     1  UNL1       -0.0850
     24 C           3.3100    4.8481    0.0000 C.3     1  UNL1       -0.0590
     25 C           3.3100    3.8481    0.0000 C.3     1  UNL1       -0.0590
     26 C           4.6760    1.7500    0.0000 C.3     1  UNL1       -0.0314
     27 C           6.1760    4.3481    0.0000 C.2     1  UNL1       -0.0845
     28 C           4.1760    0.8840    0.0000 C.2     1  UNL1       -0.0765
     29 C           4.1760    6.0801    0.0000 C.3     1  UNL1       -0.0616
     30 C           6.7741   -1.0801    0.0000 C.3     1  UNL1        0.0442
     31 C           6.7741   -4.0801    0.0000 C.3     1  UNL1       -0.0367
     32 C           5.9081   -5.5801    0.0000 C.2     1  UNL1        0.1460
     33 C           6.1760    2.6160    0.0000 C.3     1  UNL1       -0.0435
     34 C           3.1760    0.8840    0.0000 C.3     1  UNL1       -0.0438
     35 H           5.0420   -2.4601    0.0000 H       1  UNL1        0.0352
     36 H           2.6994   -3.9725    0.0000 H       1  UNL1        0.0296
     37 H           3.0980   -4.6627    0.0000 H       1  UNL1        0.0296
     38 H           5.1510   -2.1126    0.0000 H       1  UNL1        0.0275
     39 H           5.1510   -1.3156    0.0000 H       1  UNL1        0.0275
     40 H           3.7775   -5.0551    0.0000 H       1  UNL1        0.0311
     41 H           4.5746   -5.0551    0.0000 H       1  UNL1        0.0311
     42 H           4.2130   -1.4041    0.0000 H       1  UNL1        0.0236
     43 H           3.3660   -1.1772    0.0000 H       1  UNL1        0.0236
     44 H           3.1391   -2.0241    0.0000 H       1  UNL1        0.0236
     45 H           6.1201   -3.1627    0.0000 H       1  UNL1        0.0272
     46 H           6.5187   -2.4725    0.0000 H       1  UNL1        0.0272
     47 H           3.3469   -1.9041    0.0000 H       1  UNL1        0.0257
     48 H           2.5000   -1.6772    0.0000 H       1  UNL1        0.0257
     49 H           2.2731   -2.5241    0.0000 H       1  UNL1        0.0257
     50 H           3.7011   -0.4495    0.0000 H       1  UNL1        0.0308
     51 H           3.7011   -1.2466    0.0000 H       1  UNL1        0.0308
     52 H           4.0560    3.4820    0.0000 H       1  UNL1        0.0351
     53 H           4.0560    5.2141    0.0000 H       1  UNL1        0.0306
     54 H           2.0000   -3.6171    0.0000 H       1  UNL1        0.2102
     55 H           5.6960   -0.9975    0.0000 H       1  UNL1        0.0287
     56 H           5.2975   -1.6878    0.0000 H       1  UNL1        0.0287
     57 H           3.7011    3.0146    0.0000 H       1  UNL1        0.0274
     58 H           3.7011    2.2175    0.0000 H       1  UNL1        0.0274
     59 H           6.2586    5.4262    0.0000 H       1  UNL1        0.0310
     60 H           5.5684    5.8247    0.0000 H       1  UNL1        0.0310
     61 H           3.6200    5.3850    0.0000 H       1  UNL1        0.0235
     62 H           2.7731    5.1581    0.0000 H       1  UNL1        0.0235
     63 H           3.0000    4.3111    0.0000 H       1  UNL1        0.0235
     64 H           3.0000    4.3850    0.0000 H       1  UNL1        0.0235
     65 H           2.7731    3.5381    0.0000 H       1  UNL1        0.0235
     66 H           3.6200    3.3111    0.0000 H       1  UNL1        0.0235
     67 H           5.2960    0.0179    0.0000 H       1  UNL1        0.0572
     68 H           5.1510    1.3515    0.0000 H       1  UNL1        0.0310
     69 H           5.1510    2.1485    0.0000 H       1  UNL1        0.0310
     70 H           6.7960    4.3481    0.0000 H       1  UNL1        0.0572
     71 H           4.7130    6.3901    0.0000 H       1  UNL1        0.0233
     72 H           3.8660    6.6171    0.0000 H       1  UNL1        0.0233
     73 H           3.6391    5.7701    0.0000 H       1  UNL1        0.0233
     74 H           7.1726   -0.6052    0.0000 H       1  UNL1        0.0557
     75 H           6.3756   -0.6052    0.0000 H       1  UNL1        0.0557
     76 H           7.0841   -4.6171    0.0000 H       1  UNL1        0.0278
     77 H           7.3110   -3.7701    0.0000 H       1  UNL1        0.0278
     78 H           6.4641   -3.5432    0.0000 H       1  UNL1        0.0278
     79 H           5.3711   -5.8901    0.0000 H       1  UNL1        0.1078
     80 H           5.6391    2.3060    0.0000 H       1  UNL1        0.0274
     81 H           6.4860    2.0791    0.0000 H       1  UNL1        0.0274
     82 H           6.7130    2.9260    0.0000 H       1  UNL1        0.0274
     83 H           3.1760    1.5040    0.0000 H       1  UNL1        0.0274
     84 H           2.5560    0.8840    0.0000 H       1  UNL1        0.0274
     85 H           3.1760    0.2640    0.0000 H       1  UNL1        0.0274
     86 H           8.1771   -1.2701    0.0000 H       1  UNL1        0.2094
@<TRIPOS>BOND
     1     1     5    1
     2     1    54    1
     3     2    30    1
     4     2    86    1
     5     3    32    2
     6     4     5    1
     7     4     6    1
     8     4     8    1
     9     4    11    1
    10     5     7    1
    11     5    13    1
    12     6     9    1
    13     6    12    1
    14     6    35    1
    15     7    10    1
    16     7    36    1
    17     7    37    1
    18     8    15    1
    19     8    38    1
    20     8    39    1
    21     9    10    1
    22     9    19    2
    23    10    40    1
    24    10    41    1
    25    11    42    1
    26    11    43    1
    27    11    44    1
    28    12    18    1
    29    12    45    1
    30    12    46    1
    31    13    47    1
    32    13    48    1
    33    13    49    1
    34    14    16    1
    35    14    17    1
    36    14    24    1
    37    14    25    1
    38    15    23    1
    39    15    50    1
    40    15    51    1
    41    16    20    1
    42    16    22    1
    43    16    52    1
    44    17    21    1
    45    17    29    1
    46    17    53    1
    47    18    30    1
    48    18    55    1
    49    18    56    1
    50    19    31    1
    51    19    32    1
    52    20    26    1
    53    20    57    1
    54    20    58    1
    55    21    27    1
    56    21    59    1
    57    21    60    1
    58    22    27    2
    59    22    33    1
    60    23    28    2
    61    23    67    1
    62    24    61    1
    63    24    62    1
    64    24    63    1
    65    25    64    1
    66    25    65    1
    67    25    66    1
    68    26    28    1
    69    26    68    1
    70    26    69    1
    71    27    70    1
    72    28    34    1
    73    29    71    1
    74    29    72    1
    75    29    73    1
    76    30    74    1
    77    30    75    1
    78    31    76    1
    79    31    77    1
    80    31    78    1
    81    32    79    1
    82    33    80    1
    83    33    81    1
    84    33    82    1
    85    34    83    1
    86    34    84    1
    87    34    85    1
