@<TRIPOS>MOLECULE
IMPHY010474
 45 50 0 0 0
SMALL
GASTEIGER

@<TRIPOS>ATOM
      1 O           6.2352   -2.5833    0.0000 O.3     1  UNL1       -0.3646
      2 O           8.9116   -2.0448    0.0000 O.3     1  UNL1       -0.3771
      3 O           4.5112    2.5349    0.0000 O.3     1  UNL1       -0.4910
      4 O           2.6079   -0.3380    0.0000 O.3     1  UNL1       -0.4525
      5 O           2.6079    1.3385    0.0000 O.3     1  UNL1       -0.4489
      6 N           7.1256    1.0003    0.0000 N.3     1  UNL1       -0.2941
      7 C           6.2596   -0.4997    0.0000 C.3     1  UNL1        0.0417
      8 C           6.2435   -1.5412    0.0000 C.3     1  UNL1        0.0988
      9 C           7.1256    0.0003    0.0000 C.3     1  UNL1        0.0253
     10 C           7.1415   -2.0690    0.0000 C.3     1  UNL1        0.1122
     11 C           6.1461    0.1038    0.0000 C.3     1  UNL1       -0.0266
     12 C           8.0356   -0.5066    0.0000 C.3     1  UNL1       -0.0075
     13 C           8.0436   -1.5482    0.0000 C.3     1  UNL1        0.0883
     14 C           5.3935    0.0003    0.0000 C.ar    1  UNL1       -0.0256
     15 C           6.5462    0.7967    0.0000 C.3     1  UNL1        0.0005
     16 C           6.2596    1.5003    0.0000 C.3     1  UNL1        0.0282
     17 C           5.3935    1.0003    0.0000 C.ar    1  UNL1        0.0160
     18 C           4.4996   -0.5344    0.0000 C.ar    1  UNL1       -0.0118
     19 C           4.4996    1.5349    0.0000 C.ar    1  UNL1        0.1700
     20 C           3.5935   -0.0206    0.0000 C.ar    1  UNL1        0.1702
     21 C           3.5935    1.0211    0.0000 C.ar    1  UNL1        0.2078
     22 C           8.9154   -3.0448    0.0000 C.3     1  UNL1        0.0369
     23 C           2.0000    0.5003    0.0000 C.3     1  UNL1        0.2334
     24 C           3.6510    3.0448    0.0000 C.3     1  UNL1        0.0790
     25 H           5.6235   -1.5340    0.0000 H       1  UNL1        0.0632
     26 H           7.8617    0.4253    0.0000 H       1  UNL1        0.0473
     27 H           7.4495   -2.6071    0.0000 H       1  UNL1        0.0648
     28 H           5.7190    0.5532    0.0000 H       1  UNL1        0.0287
     29 H           5.5942   -0.1785    0.0000 H       1  UNL1        0.0287
     30 H           8.6472   -0.6080    0.0000 H       1  UNL1        0.0306
     31 H           8.2401    0.0787    0.0000 H       1  UNL1        0.0306
     32 H           8.0448   -2.1682    0.0000 H       1  UNL1        0.0623
     33 H           6.5147    1.4159    0.0000 H       1  UNL1        0.0427
     34 H           5.9434    0.9419    0.0000 H       1  UNL1        0.0427
     35 H           6.6581    1.9752    0.0000 H       1  UNL1        0.0477
     36 H           5.8610    1.9752    0.0000 H       1  UNL1        0.0477
     37 H           4.5068   -1.1544    0.0000 H       1  UNL1        0.0658
     38 H           8.2954   -3.0472    0.0000 H       1  UNL1        0.0524
     39 H           8.9178   -3.6648    0.0000 H       1  UNL1        0.0524
     40 H           9.5354   -3.0424    0.0000 H       1  UNL1        0.0524
     41 H           1.5391    0.9150    0.0000 H       1  UNL1        0.1166
     42 H           1.5391    0.0855    0.0000 H       1  UNL1        0.1166
     43 H           3.9672    3.5782    0.0000 H       1  UNL1        0.0660
     44 H           3.1176    3.3610    0.0000 H       1  UNL1        0.0660
     45 H           3.3348    2.5115    0.0000 H       1  UNL1        0.0660
@<TRIPOS>BOND
     1     8     1    1
     2    10     1    1
     3    13     2    1
     4     2    22    1
     5     3    19    1
     6     3    24    1
     7     4    20    1
     8     4    23    1
     9     5    21    1
    10     5    23    1
    11     6     9    1
    12     6    15    1
    13     6    16    1
    14     7     8    1
    15     7     9    1
    16     7    11    1
    17     7    14    1
    18     8    10    1
    19     8    25    1
    20     9    12    1
    21     9    26    1
    22    10    13    1
    23    10    27    1
    24    11    15    1
    25    11    28    1
    26    11    29    1
    27    12    13    1
    28    12    30    1
    29    12    31    1
    30    13    32    1
    31    14    17   ar
    32    14    18   ar
    33    15    33    1
    34    15    34    1
    35    16    17    1
    36    16    35    1
    37    16    36    1
    38    17    19   ar
    39    18    20   ar
    40    18    37    1
    41    19    21   ar
    42    20    21   ar
    43    22    38    1
    44    22    39    1
    45    22    40    1
    46    23    41    1
    47    23    42    1
    48    24    43    1
    49    24    44    1
    50    24    45    1
