@<TRIPOS>MOLECULE
IMPHY003890
 36 38 0 0 0
SMALL
GASTEIGER

@<TRIPOS>ATOM
      1 O           3.7230   -0.1959    0.0000 O.3     1  UNL1       -0.4569
      2 O           7.0268   -2.1845    0.0000 O.3     1  UNL1       -0.3875
      3 O           2.0000    0.2363    0.0000 O.2     1  UNL1       -0.2453
      4 C           5.4786   -0.1221    0.0000 C.3     1  UNL1        0.0265
      5 C           6.3796    0.3118    0.0000 C.3     1  UNL1       -0.0075
      6 C           4.5777    0.3118    0.0000 C.3     1  UNL1        0.1174
      7 C           4.3551    1.2867    0.0000 C.3     1  UNL1        0.0283
      8 C           7.0647   -0.4085    0.0000 C.3     1  UNL1       -0.0158
      9 C           5.6146   -1.1068    0.0000 C.2     1  UNL1       -0.0414
     10 C           6.5929   -1.2835    0.0000 C.3     1  UNL1        0.0770
     11 C           6.6021    1.2867    0.0000 C.2     1  UNL1       -0.0727
     12 C           4.9786    2.0685    0.0000 C.3     1  UNL1       -0.0389
     13 C           5.9786    2.0685    0.0000 C.3     1  UNL1       -0.0310
     14 C           3.3648    1.3732    0.0000 C.2     1  UNL1        0.0361
     15 C           2.9749    0.4588    0.0000 C.2     1  UNL1        0.3353
     16 C           4.8930   -1.7992    0.0000 C.2     1  UNL1       -0.0966
     17 C           7.5770    1.5092    0.0000 C.2     1  UNL1       -0.0992
     18 C           2.8504    2.2308    0.0000 C.2     1  UNL1       -0.0883
     19 H           4.7916   -0.6226    0.0000 H       1  UNL1        0.0388
     20 H           7.1993    0.5368    0.0000 H       1  UNL1        0.0353
     21 H           4.6147   -0.5374    0.0000 H       1  UNL1        0.0746
     22 H           4.0200    2.0679    0.0000 H       1  UNL1        0.0387
     23 H           7.5765   -0.7585    0.0000 H       1  UNL1        0.0299
     24 H           7.4666    0.0636    0.0000 H       1  UNL1        0.0299
     25 H           7.2127   -1.2977    0.0000 H       1  UNL1        0.0640
     26 H           5.1166    2.6730    0.0000 H       1  UNL1        0.0275
     27 H           4.4200    2.3375    0.0000 H       1  UNL1        0.0275
     28 H           6.5372    2.3375    0.0000 H       1  UNL1        0.0310
     29 H           5.8407    2.6730    0.0000 H       1  UNL1        0.0310
     30 H           4.2976   -1.6263    0.0000 H       1  UNL1        0.0535
     31 H           5.0411   -2.4012    0.0000 H       1  UNL1        0.0535
     32 H           7.9988    1.0547    0.0000 H       1  UNL1        0.0534
     33 H           7.7598    2.1017    0.0000 H       1  UNL1        0.0534
     34 H           7.6450   -2.2308    0.0000 H       1  UNL1        0.2102
     35 H           3.1514    2.7728    0.0000 H       1  UNL1        0.0540
     36 H           2.2305    2.2204    0.0000 H       1  UNL1        0.0540
@<TRIPOS>BOND
     1     1     6    1
     2     1    15    1
     3    10     2    1
     4     2    34    1
     5     3    15    2
     6     4     5    1
     7     4     6    1
     8     4     9    1
     9     4    19    1
    10     5     8    1
    11     5    11    1
    12     5    20    1
    13     6     7    1
    14     6    21    1
    15     7    12    1
    16     7    14    1
    17     7    22    1
    18     8    10    1
    19     8    23    1
    20     8    24    1
    21     9    10    1
    22     9    16    2
    23    10    25    1
    24    11    13    1
    25    11    17    2
    26    12    13    1
    27    12    26    1
    28    12    27    1
    29    13    28    1
    30    13    29    1
    31    14    15    1
    32    14    18    2
    33    16    30    1
    34    16    31    1
    35    17    32    1
    36    17    33    1
    37    18    35    1
    38    18    36    1
