@<TRIPOS>MOLECULE
IMPHY017048
 35 34 0 0 0
SMALL
GASTEIGER

@<TRIPOS>ATOM
      1 O           5.4641    0.5950    0.0000 O.3     1  UNL1       -0.4348
      2 O           4.5981    2.0950    0.0000 O.3     1  UNL1       -0.3572
      3 O           6.3301    2.0950    0.0000 O.2     1  UNL1       -0.2511
      4 C           3.7320    0.5950    0.0000 C.3     1  UNL1        0.0455
      5 C           3.7320   -0.4050    0.0000 C.3     1  UNL1       -0.0223
      6 C           4.5981    1.0950    0.0000 C.3     1  UNL1        0.2090
      7 C           2.8660    1.0950    0.0000 C.2     1  UNL1       -0.0705
      8 C           2.8660   -0.9050    0.0000 C.2     1  UNL1       -0.0845
      9 C           2.0000    0.5950    0.0000 C.3     1  UNL1       -0.0436
     10 C           2.8660   -1.9050    0.0000 C.2     1  UNL1       -0.0796
     11 C           2.8660    2.0950    0.0000 C.2     1  UNL1       -0.0992
     12 C           2.0000   -2.4050    0.0000 C.3     1  UNL1       -0.0440
     13 C           3.7320   -2.4050    0.0000 C.3     1  UNL1       -0.0440
     14 C           6.3301    1.0950    0.0000 C.2     1  UNL1        0.3061
     15 C           7.1962    0.5950    0.0000 C.3     1  UNL1        0.0333
     16 H           4.2690    0.2850    0.0000 H       1  UNL1        0.0409
     17 H           3.9441   -0.9876    0.0000 H       1  UNL1        0.0315
     18 H           4.3426   -0.2973    0.0000 H       1  UNL1        0.0315
     19 H           4.0611    1.4050    0.0000 H       1  UNL1        0.1061
     20 H           2.3291   -0.5950    0.0000 H       1  UNL1        0.0572
     21 H           1.6900    1.1319    0.0000 H       1  UNL1        0.0274
     22 H           1.4631    0.2850    0.0000 H       1  UNL1        0.0274
     23 H           2.3100    0.0581    0.0000 H       1  UNL1        0.0274
     24 H           3.4030    2.4050    0.0000 H       1  UNL1        0.0534
     25 H           2.3291    2.4050    0.0000 H       1  UNL1        0.0534
     26 H           5.1350    2.4050    0.0000 H       1  UNL1        0.2136
     27 H           1.6900   -1.8681    0.0000 H       1  UNL1        0.0274
     28 H           1.4631   -2.7150    0.0000 H       1  UNL1        0.0274
     29 H           2.3100   -2.9419    0.0000 H       1  UNL1        0.0274
     30 H           3.4220   -2.9419    0.0000 H       1  UNL1        0.0274
     31 H           4.2690   -2.7150    0.0000 H       1  UNL1        0.0274
     32 H           4.0420   -1.8681    0.0000 H       1  UNL1        0.0274
     33 H           6.8862    0.0581    0.0000 H       1  UNL1        0.0342
     34 H           7.7331    0.2850    0.0000 H       1  UNL1        0.0342
     35 H           7.5062    1.1319    0.0000 H       1  UNL1        0.0342
@<TRIPOS>BOND
     1     1     6    1
     2     1    14    1
     3     2     6    1
     4     2    26    1
     5     3    14    2
     6     4     5    1
     7     4     6    1
     8     4     7    1
     9     4    16    1
    10     5     8    1
    11     5    17    1
    12     5    18    1
    13     6    19    1
    14     7     9    1
    15     7    11    2
    16     8    10    2
    17     8    20    1
    18     9    21    1
    19     9    22    1
    20     9    23    1
    21    10    12    1
    22    10    13    1
    23    11    24    1
    24    11    25    1
    25    12    27    1
    26    12    28    1
    27    12    29    1
    28    13    30    1
    29    13    31    1
    30    13    32    1
    31    14    15    1
    32    15    33    1
    33    15    34    1
    34    15    35    1
