@<TRIPOS>MOLECULE
IMPHY003017
 35 38 0 0 0
SMALL
GASTEIGER

@<TRIPOS>ATOM
      1 O           4.6783   -2.1329    0.0000 O.2     1  UNL1       -0.4542
      2 C           4.6783   -0.5234    0.0000 C.ar    1  UNL1        0.0356
      3 C           3.7320   -0.8281    0.0000 C.ar    1  UNL1        0.0285
      4 C           5.2619   -1.3282    0.0000 C.ar    1  UNL1        0.1439
      5 C           3.7320   -1.8282    0.0000 C.ar    1  UNL1        0.1363
      6 C           4.9889    0.4271    0.0000 C.ar    1  UNL1       -0.0137
      7 C           6.2619   -1.3282    0.0000 C.ar    1  UNL1        0.0179
      8 C           2.8660   -0.3281    0.0000 C.ar    1  UNL1       -0.0504
      9 C           2.8660   -2.3282    0.0000 C.ar    1  UNL1       -0.0187
     10 C           5.9674    0.6333    0.0000 C.ar    1  UNL1       -0.0539
     11 C           4.3211    1.1714    0.0000 C.ar    1  UNL1       -0.0539
     12 C           2.0000   -0.8281    0.0000 C.ar    1  UNL1       -0.0610
     13 C           2.0000   -1.8282    0.0000 C.ar    1  UNL1       -0.0582
     14 C           6.7619   -2.1942    0.0000 C.ar    1  UNL1       -0.0511
     15 C           6.7619   -0.4621    0.0000 C.ar    1  UNL1       -0.0511
     16 C           6.2781    1.5838    0.0000 C.ar    1  UNL1       -0.0612
     17 C           4.6318    2.1219    0.0000 C.ar    1  UNL1       -0.0612
     18 C           7.7619   -2.1942    0.0000 C.ar    1  UNL1       -0.0611
     19 C           7.7619   -0.4621    0.0000 C.ar    1  UNL1       -0.0611
     20 C           5.6103    2.3282    0.0000 C.ar    1  UNL1       -0.0617
     21 C           8.2619   -1.3282    0.0000 C.ar    1  UNL1       -0.0617
     22 H           2.8660    0.2919    0.0000 H       1  UNL1        0.0625
     23 H           2.8660   -2.9482    0.0000 H       1  UNL1        0.0654
     24 H           6.3815    0.1719    0.0000 H       1  UNL1        0.0624
     25 H           3.7144    1.0436    0.0000 H       1  UNL1        0.0624
     26 H           1.4631   -0.5181    0.0000 H       1  UNL1        0.0618
     27 H           1.4631   -2.1382    0.0000 H       1  UNL1        0.0619
     28 H           6.4519   -2.7311    0.0000 H       1  UNL1        0.0625
     29 H           6.4519    0.0748    0.0000 H       1  UNL1        0.0625
     30 H           6.8848    1.7117    0.0000 H       1  UNL1        0.0618
     31 H           4.2177    2.5834    0.0000 H       1  UNL1        0.0618
     32 H           8.0719   -2.7311    0.0000 H       1  UNL1        0.0618
     33 H           8.0719    0.0748    0.0000 H       1  UNL1        0.0618
     34 H           5.8029    2.9175    0.0000 H       1  UNL1        0.0618
     35 H           8.8819   -1.3282    0.0000 H       1  UNL1        0.0618
@<TRIPOS>BOND
     1     1     4   ar
     2     1     5   ar
     3     2     3   ar
     4     2     4   ar
     5     2     6    1
     6     3     5   ar
     7     3     8   ar
     8     4     7    1
     9     5     9   ar
    10     6    10   ar
    11     6    11   ar
    12     7    14   ar
    13     7    15   ar
    14     8    12   ar
    15     8    22    1
    16     9    13   ar
    17     9    23    1
    18    10    16   ar
    19    10    24    1
    20    11    17   ar
    21    11    25    1
    22    12    13   ar
    23    12    26    1
    24    13    27    1
    25    14    18   ar
    26    14    28    1
    27    15    19   ar
    28    15    29    1
    29    16    20   ar
    30    16    30    1
    31    17    20   ar
    32    17    31    1
    33    18    21   ar
    34    18    32    1
    35    19    21   ar
    36    19    33    1
    37    20    34    1
    38    21    35    1
