@<TRIPOS>MOLECULE
IMPHY005107
 157 165 0 0 0
SMALL
GASTEIGER

@<TRIPOS>ATOM
      1 O          12.9292    0.5900    0.0000 O.3     1  UNL1       -0.3448
      2 O          14.7503   -1.1808    0.0000 O.3     1  UNL1       -0.3944
      3 O          21.8424    3.7109    0.0000 O.3     1  UNL1       -0.4802
      4 O          20.9937    2.2010    0.0000 O.2     1  UNL1       -0.2504
      5 O          12.0632    2.0900    0.0000 O.3     1  UNL1       -0.3461
      6 O          11.1972   -0.4100    0.0000 O.3     1  UNL1       -0.3378
      7 O           9.4651    0.5900    0.0000 O.3     1  UNL1       -0.3864
      8 O           9.4651    2.5900    0.0000 O.3     1  UNL1       -0.3869
      9 O           9.4651   -0.4100    0.0000 O.3     1  UNL1       -0.3431
     10 O          11.1972   -2.4100    0.0000 O.3     1  UNL1       -0.3841
     11 O           9.4651   -3.4100    0.0000 O.3     1  UNL1       -0.3401
     12 O           7.7331   -2.4100    0.0000 O.3     1  UNL1       -0.3866
     13 O           7.7331   -3.4100    0.0000 O.3     1  UNL1       -0.3460
     14 O           9.4651   -5.4100    0.0000 O.3     1  UNL1       -0.3841
     15 O           7.7331   -6.4100    0.0000 O.3     1  UNL1       -0.3864
     16 O           6.0010   -5.4100    0.0000 O.3     1  UNL1       -0.3405
     17 O           5.1350   -3.9100    0.0000 O.3     1  UNL1       -0.3405
     18 O           4.2690   -6.4100    0.0000 O.3     1  UNL1       -0.3841
     19 O           2.5369   -5.4100    0.0000 O.3     1  UNL1       -0.3864
     20 O           2.5369   -3.4100    0.0000 O.3     1  UNL1       -0.3865
     21 O           3.4030   -1.9100    0.0000 O.3     1  UNL1       -0.3924
     22 C          17.4503    2.1598    0.0000 C.3     1  UNL1       -0.0194
     23 C          16.5823    2.6565    0.0000 C.3     1  UNL1       -0.0257
     24 C          15.6743    2.1461    0.0000 C.3     1  UNL1       -0.0249
     25 C          18.3144    2.6631    0.0000 C.3     1  UNL1       -0.0051
     26 C          15.6703    1.1045    0.0000 C.3     1  UNL1       -0.0255
     27 C          17.4704    1.1184    0.0000 C.3     1  UNL1       -0.0463
     28 C          14.7370    0.5512    0.0000 C.3     1  UNL1        0.0206
     29 C          16.5744    0.5872    0.0000 C.3     1  UNL1       -0.0485
     30 C          18.3105    3.6631    0.0000 C.2     1  UNL1       -0.0629
     31 C          14.7453    2.7066    0.0000 C.3     1  UNL1       -0.0447
     32 C          16.5785    3.6564    0.0000 C.3     1  UNL1       -0.0306
     33 C          19.2024    4.2012    0.0000 C.3     1  UNL1       -0.0031
     34 C          19.2104    2.1319    0.0000 C.3     1  UNL1       -0.0424
     35 C          20.1104    3.6909    0.0000 C.3     1  UNL1        0.0741
     36 C          13.7953    1.0900    0.0000 C.3     1  UNL1        0.0695
     37 C          18.0960    1.3962    0.0000 C.3     1  UNL1       -0.0585
     38 C          20.1145    2.6493    0.0000 C.3     1  UNL1       -0.0359
     39 C          15.6782    3.1461    0.0000 C.3     1  UNL1       -0.0590
     40 C          13.7994    2.1750    0.0000 C.3     1  UNL1       -0.0254
     41 C          17.4426    4.1598    0.0000 C.2     1  UNL1       -0.0836
     42 C          18.6600    1.7248    0.0000 C.3     1  UNL1       -0.0553
     43 C          19.1731    5.2858    0.0000 C.3     1  UNL1       -0.0403
     44 C          21.0522    4.2298    0.0000 C.3     1  UNL1       -0.0362
     45 C          20.1021    5.8463    0.0000 C.3     1  UNL1       -0.0343
     46 C          15.2436   -0.3110    0.0000 C.3     1  UNL1        0.0522
     47 C          14.2437   -0.3187    0.0000 C.3     1  UNL1       -0.0548
     48 C          21.0480    5.3147    0.0000 C.3     1  UNL1       -0.0468
     49 C          20.9822    3.2009    0.0000 C.2     1  UNL1        0.3115
     50 C          20.5887    6.7200    0.0000 C.3     1  UNL1       -0.0598
     51 C          19.5888    6.7046    0.0000 C.3     1  UNL1       -0.0598
     52 C          12.0632    1.0900    0.0000 C.3     1  UNL1        0.1882
     53 C          11.1972    0.5900    0.0000 C.3     1  UNL1        0.1406
     54 C          10.3312    1.0900    0.0000 C.3     1  UNL1        0.1141
     55 C          11.1972    2.5900    0.0000 C.3     1  UNL1        0.0792
     56 C          10.3312    2.0900    0.0000 C.3     1  UNL1        0.1069
     57 C          10.3312   -0.9100    0.0000 C.3     1  UNL1        0.1884
     58 C          10.3312   -1.9100    0.0000 C.3     1  UNL1        0.1345
     59 C           9.4651   -2.4100    0.0000 C.3     1  UNL1        0.1205
     60 C           8.5991   -0.9100    0.0000 C.3     1  UNL1        0.0873
     61 C           8.5991   -1.9100    0.0000 C.3     1  UNL1        0.1098
     62 C           7.7331   -0.4100    0.0000 C.3     1  UNL1       -0.0361
     63 C           8.5991   -3.9100    0.0000 C.3     1  UNL1        0.1880
     64 C           8.5991   -4.9100    0.0000 C.3     1  UNL1        0.1341
     65 C           7.7331   -5.4100    0.0000 C.3     1  UNL1        0.1141
     66 C           6.8671   -4.9100    0.0000 C.3     1  UNL1        0.1134
     67 C           6.8671   -3.9100    0.0000 C.3     1  UNL1        0.0796
     68 C           5.1350   -4.9100    0.0000 C.3     1  UNL1        0.1884
     69 C           4.2690   -5.4100    0.0000 C.3     1  UNL1        0.1341
     70 C           3.4030   -4.9100    0.0000 C.3     1  UNL1        0.1141
     71 C           4.2690   -3.4100    0.0000 C.3     1  UNL1        0.1130
     72 C           3.4030   -3.9100    0.0000 C.3     1  UNL1        0.1119
     73 C           4.2690   -2.4100    0.0000 C.3     1  UNL1        0.0730
     74 H          17.3168    3.0843    0.0000 H       1  UNL1        0.0315
     75 H          15.6768    0.2545    0.0000 H       1  UNL1        0.0313
     76 H          17.6906    0.5388    0.0000 H       1  UNL1        0.0271
     77 H          18.0791    1.2362    0.0000 H       1  UNL1        0.0271
     78 H          16.1789    0.1097    0.0000 H       1  UNL1        0.0268
     79 H          16.9771    0.1158    0.0000 H       1  UNL1        0.0268
     80 H          15.1517    3.1748    0.0000 H       1  UNL1        0.0271
     81 H          14.3535    3.1872    0.0000 H       1  UNL1        0.0271
     82 H          16.3642    4.2382    0.0000 H       1  UNL1        0.0310
     83 H          15.9683    3.5464    0.0000 H       1  UNL1        0.0310
     84 H          19.9302    4.6403    0.0000 H       1  UNL1        0.0357
     85 H          18.8076    1.6606    0.0000 H       1  UNL1        0.0274
     86 H          19.6058    1.6544    0.0000 H       1  UNL1        0.0274
     87 H          13.7965    0.4700    0.0000 H       1  UNL1        0.0603
     88 H          17.6226    0.9959    0.0000 H       1  UNL1        0.0235
     89 H          18.4964    0.9228    0.0000 H       1  UNL1        0.0235
     90 H          18.5694    1.7966    0.0000 H       1  UNL1        0.0235
     91 H          20.3258    2.0664    0.0000 H       1  UNL1        0.0276
     92 H          20.7249    2.7577    0.0000 H       1  UNL1        0.0276
     93 H          16.2981    3.1437    0.0000 H       1  UNL1        0.0235
     94 H          15.6805    3.7661    0.0000 H       1  UNL1        0.0235
     95 H          15.0582    3.1485    0.0000 H       1  UNL1        0.0235
     96 H          13.5926    2.7595    0.0000 H       1  UNL1        0.0290
     97 H          13.1882    2.0713    0.0000 H       1  UNL1        0.0290
     98 H          17.4402    4.7798    0.0000 H       1  UNL1        0.0572
     99 H          18.0782    1.5105    0.0000 H       1  UNL1        0.0238
    100 H          18.8743    1.1430    0.0000 H       1  UNL1        0.0238
    101 H          19.2418    1.9391    0.0000 H       1  UNL1        0.0238
    102 H          18.9484    5.8637    0.0000 H       1  UNL1        0.0276
    103 H          18.5654    5.1633    0.0000 H       1  UNL1        0.0276
    104 H          21.2635    3.6469    0.0000 H       1  UNL1        0.0276
    105 H          21.6626    4.3382    0.0000 H       1  UNL1        0.0276
    106 H          15.7217   -0.7058    0.0000 H       1  UNL1        0.0563
    107 H          15.7155    0.0912    0.0000 H       1  UNL1        0.0563
    108 H          13.7044   -0.0128    0.0000 H       1  UNL1        0.0237
    109 H          13.9378   -0.8580    0.0000 H       1  UNL1        0.0237
    110 H          14.7830   -0.6245    0.0000 H       1  UNL1        0.0237
    111 H          21.6592    5.2110    0.0000 H       1  UNL1        0.0271
    112 H          21.2548    5.8992    0.0000 H       1  UNL1        0.0271
    113 H          20.1209    7.0228    0.0000 H       1  UNL1        0.0235
    114 H          19.2706    7.2366    0.0000 H       1  UNL1        0.0235
    115 H          19.0567    6.3863    0.0000 H       1  UNL1        0.0235
    116 H          21.1304    6.4183    0.0000 H       1  UNL1        0.0235
    117 H          20.8904    7.2616    0.0000 H       1  UNL1        0.0235
    118 H          20.0471    7.0216    0.0000 H       1  UNL1        0.0235
    119 H          12.0632    0.4700    0.0000 H       1  UNL1        0.0937
    120 H          15.0645   -1.7154    0.0000 H       1  UNL1        0.2094
    121 H          22.3829    3.4071    0.0000 H       1  UNL1        0.2951
    122 H          10.6603    0.2800    0.0000 H       1  UNL1        0.0675
    123 H           9.7942    1.4000    0.0000 H       1  UNL1        0.0648
    124 H          11.5957    3.0650    0.0000 H       1  UNL1        0.0587
    125 H          10.7987    3.0650    0.0000 H       1  UNL1        0.0587
    126 H          10.3312    2.7100    0.0000 H       1  UNL1        0.0643
    127 H          10.3312   -0.2900    0.0000 H       1  UNL1        0.0938
    128 H           8.9282    0.9000    0.0000 H       1  UNL1        0.2100
    129 H           9.4651    3.2100    0.0000 H       1  UNL1        0.2100
    130 H          10.3312   -2.5300    0.0000 H       1  UNL1        0.0671
    131 H           8.9282   -2.7200    0.0000 H       1  UNL1        0.0651
    132 H           8.5991   -0.2900    0.0000 H       1  UNL1        0.0621
    133 H           8.0622   -1.6000    0.0000 H       1  UNL1        0.0646
    134 H          11.7341   -2.1000    0.0000 H       1  UNL1        0.2101
    135 H           8.0431    0.1270    0.0000 H       1  UNL1        0.0255
    136 H           7.1962   -0.1000    0.0000 H       1  UNL1        0.0255
    137 H           7.4231   -0.9469    0.0000 H       1  UNL1        0.0255
    138 H           7.1962   -2.1000    0.0000 H       1  UNL1        0.2100
    139 H           8.5991   -3.2900    0.0000 H       1  UNL1        0.0937
    140 H           8.5991   -5.5300    0.0000 H       1  UNL1        0.0671
    141 H           7.1962   -5.7200    0.0000 H       1  UNL1        0.0648
    142 H           6.3301   -4.6000    0.0000 H       1  UNL1        0.0647
    143 H           6.6550   -3.3274    0.0000 H       1  UNL1        0.0587
    144 H           6.2565   -4.0176    0.0000 H       1  UNL1        0.0587
    145 H           9.4651   -6.0300    0.0000 H       1  UNL1        0.2101
    146 H           7.1962   -6.7200    0.0000 H       1  UNL1        0.2100
    147 H           5.1350   -5.5300    0.0000 H       1  UNL1        0.0938
    148 H           3.7320   -5.7200    0.0000 H       1  UNL1        0.0671
    149 H           2.8660   -4.6000    0.0000 H       1  UNL1        0.0648
    150 H           4.8059   -3.1000    0.0000 H       1  UNL1        0.0647
    151 H           3.4030   -3.2900    0.0000 H       1  UNL1        0.0647
    152 H           4.8796   -2.5176    0.0000 H       1  UNL1        0.0584
    153 H           4.4810   -1.8274    0.0000 H       1  UNL1        0.0584
    154 H           3.7320   -6.7200    0.0000 H       1  UNL1        0.2101
    155 H           2.0000   -5.1000    0.0000 H       1  UNL1        0.2100
    156 H           2.0000   -3.7200    0.0000 H       1  UNL1        0.2100
    157 H           3.4030   -1.2900    0.0000 H       1  UNL1        0.2095
@<TRIPOS>BOND
     1    36     1    1
     2    52     1    1
     3     2    46    1
     4     2   120    1
     5     3    49    1
     6     3   121    1
     7     4    49    2
     8     5    52    1
     9     5    55    1
    10    53     6    1
    11    57     6    1
    12    54     7    1
    13     7   128    1
    14    56     8    1
    15     8   129    1
    16     9    57    1
    17     9    60    1
    18    58    10    1
    19    10   134    1
    20    59    11    1
    21    63    11    1
    22    61    12    1
    23    12   138    1
    24    13    63    1
    25    13    67    1
    26    64    14    1
    27    14   145    1
    28    65    15    1
    29    15   146    1
    30    66    16    1
    31    68    16    1
    32    17    68    1
    33    17    71    1
    34    69    18    1
    35    18   154    1
    36    70    19    1
    37    19   155    1
    38    72    20    1
    39    20   156    1
    40    21    73    1
    41    21   157    1
    42    22    23    1
    43    22    25    1
    44    22    27    1
    45    22    37    1
    46    23    24    1
    47    23    32    1
    48    23    74    1
    49    24    26    1
    50    24    31    1
    51    24    39    1
    52    25    30    1
    53    25    34    1
    54    25    42    1
    55    26    28    1
    56    26    29    1
    57    26    75    1
    58    27    29    1
    59    27    76    1
    60    27    77    1
    61    28    36    1
    62    28    46    1
    63    28    47    1
    64    29    78    1
    65    29    79    1
    66    30    33    1
    67    30    41    2
    68    31    40    1
    69    31    80    1
    70    31    81    1
    71    32    41    1
    72    32    82    1
    73    32    83    1
    74    33    35    1
    75    33    43    1
    76    33    84    1
    77    34    38    1
    78    34    85    1
    79    34    86    1
    80    35    38    1
    81    35    44    1
    82    35    49    1
    83    36    40    1
    84    36    87    1
    85    37    88    1
    86    37    89    1
    87    37    90    1
    88    38    91    1
    89    38    92    1
    90    39    93    1
    91    39    94    1
    92    39    95    1
    93    40    96    1
    94    40    97    1
    95    41    98    1
    96    42    99    1
    97    42   100    1
    98    42   101    1
    99    43    45    1
   100    43   102    1
   101    43   103    1
   102    44    48    1
   103    44   104    1
   104    44   105    1
   105    45    48    1
   106    45    50    1
   107    45    51    1
   108    46   106    1
   109    46   107    1
   110    47   108    1
   111    47   109    1
   112    47   110    1
   113    48   111    1
   114    48   112    1
   115    50   116    1
   116    50   117    1
   117    50   118    1
   118    51   113    1
   119    51   114    1
   120    51   115    1
   121    52    53    1
   122    52   119    1
   123    53    54    1
   124    53   122    1
   125    54    56    1
   126    54   123    1
   127    55    56    1
   128    55   124    1
   129    55   125    1
   130    56   126    1
   131    57    58    1
   132    57   127    1
   133    58    59    1
   134    58   130    1
   135    59    61    1
   136    59   131    1
   137    60    61    1
   138    60    62    1
   139    60   132    1
   140    61   133    1
   141    62   135    1
   142    62   136    1
   143    62   137    1
   144    63    64    1
   145    63   139    1
   146    64    65    1
   147    64   140    1
   148    65    66    1
   149    65   141    1
   150    66    67    1
   151    66   142    1
   152    67   143    1
   153    67   144    1
   154    68    69    1
   155    68   147    1
   156    69    70    1
   157    69   148    1
   158    70    72    1
   159    70   149    1
   160    71    72    1
   161    71    73    1
   162    71   150    1
   163    72   151    1
   164    73   152    1
   165    73   153    1
