@<TRIPOS>MOLECULE
IMPHY007910
 39 41 0 0 0
SMALL
GASTEIGER

@<TRIPOS>ATOM
      1 O           6.3580   -0.9259    0.0000 O.3     1  UNL1       -0.4792
      2 O           6.3465    2.1433    0.0000 O.2     1  UNL1       -0.2917
      3 O           4.5981    2.1087    0.0000 O.3     1  UNL1       -0.5027
      4 O           2.8660    1.1087    0.0000 O.3     1  UNL1       -0.4884
      5 O           2.8660   -0.8913    0.0000 O.3     1  UNL1       -0.4883
      6 O           4.5981   -1.8913    0.0000 O.3     1  UNL1       -0.5008
      7 C           7.2641   -0.4121    0.0000 C.3     1  UNL1        0.1323
      8 C           7.2641    0.6296    0.0000 C.3     1  UNL1        0.0520
      9 C           5.4641    0.6087    0.0000 C.ar    1  UNL1        0.1080
     10 C           5.4641   -0.3913    0.0000 C.ar    1  UNL1        0.1805
     11 C           6.3580    1.1434    0.0000 C.2     1  UNL1        0.1743
     12 C           8.1282   -0.9154    0.0000 C.ar    1  UNL1       -0.0069
     13 C           4.5981    1.1087    0.0000 C.ar    1  UNL1        0.1767
     14 C           4.5981   -0.8913    0.0000 C.ar    1  UNL1        0.2058
     15 C           3.7320    0.6087    0.0000 C.ar    1  UNL1        0.2080
     16 C           3.7320   -0.3913    0.0000 C.ar    1  UNL1        0.2108
     17 C           8.1244   -1.9154    0.0000 C.ar    1  UNL1       -0.0551
     18 C           8.9962   -0.4188    0.0000 C.ar    1  UNL1       -0.0551
     19 C           8.9884   -2.4187    0.0000 C.ar    1  UNL1       -0.0614
     20 C           9.8602   -0.9221    0.0000 C.ar    1  UNL1       -0.0614
     21 C           9.8564   -1.9221    0.0000 C.ar    1  UNL1       -0.0617
     22 C           2.0000    0.6087    0.0000 C.3     1  UNL1        0.0791
     23 C           2.8660   -1.8913    0.0000 C.3     1  UNL1        0.0791
     24 H           7.2605   -1.0321    0.0000 H       1  UNL1        0.0789
     25 H           7.8750    0.5235    0.0000 H       1  UNL1        0.0385
     26 H           7.4732    1.2132    0.0000 H       1  UNL1        0.0385
     27 H           7.5862   -2.2233    0.0000 H       1  UNL1        0.0621
     28 H           8.9985    0.2012    0.0000 H       1  UNL1        0.0621
     29 H           8.9860   -3.0387    0.0000 H       1  UNL1        0.0618
     30 H          10.3984   -0.6142    0.0000 H       1  UNL1        0.0618
     31 H          10.3921   -2.2342    0.0000 H       1  UNL1        0.0618
     32 H           4.0611    2.4187    0.0000 H       1  UNL1        0.2923
     33 H           4.0611   -2.2013    0.0000 H       1  UNL1        0.2924
     34 H           1.6900    1.1457    0.0000 H       1  UNL1        0.0660
     35 H           1.4631    0.2987    0.0000 H       1  UNL1        0.0660
     36 H           2.3100    0.0718    0.0000 H       1  UNL1        0.0660
     37 H           2.2460   -1.8913    0.0000 H       1  UNL1        0.0660
     38 H           2.8660   -2.5113    0.0000 H       1  UNL1        0.0660
     39 H           3.4860   -1.8913    0.0000 H       1  UNL1        0.0660
@<TRIPOS>BOND
     1     1     7    1
     2     1    10    1
     3     2    11    2
     4     3    13    1
     5     3    32    1
     6     4    15    1
     7     4    22    1
     8     5    16    1
     9     5    23    1
    10     6    14    1
    11     6    33    1
    12     7     8    1
    13     7    12    1
    14     7    24    1
    15     8    11    1
    16     8    25    1
    17     8    26    1
    18     9    10   ar
    19     9    11    1
    20     9    13   ar
    21    10    14   ar
    22    12    17   ar
    23    12    18   ar
    24    13    15   ar
    25    14    16   ar
    26    15    16   ar
    27    17    19   ar
    28    17    27    1
    29    18    20   ar
    30    18    28    1
    31    19    21   ar
    32    19    29    1
    33    20    21   ar
    34    20    30    1
    35    21    31    1
    36    22    34    1
    37    22    35    1
    38    22    36    1
    39    23    37    1
    40    23    38    1
    41    23    39    1
