@<TRIPOS>MOLECULE
IMPHY007802
 42 45 0 0 0
SMALL
GASTEIGER

@<TRIPOS>ATOM
      1 O           2.8963    3.1892    0.0000 O.3     1  UNL1       -0.4907
      2 O           5.6405   -3.4792    0.0000 O.2     1  UNL1       -0.4913
      3 O           3.8372   -4.5390    0.0000 O.2     1  UNL1       -0.2840
      4 O           4.6622    4.2270    0.0000 O.3     1  UNL1       -0.5033
      5 N           2.9180    0.1577    0.0000 N.pl3   1  UNL1       -0.3598
      6 C           2.0080   -0.3491    0.0000 C.3     1  UNL1        0.0989
      7 C           3.7841   -0.3423    0.0000 C.2     1  UNL1        0.1572
      8 C           2.0000   -1.3908    0.0000 C.3     1  UNL1        0.0275
      9 C           3.8001   -1.3838    0.0000 C.2     1  UNL1        0.0476
     10 C           2.9021   -1.9116    0.0000 C.2     1  UNL1       -0.0245
     11 C           2.9180    1.1577    0.0000 C.2     1  UNL1        0.1241
     12 C           4.6501    0.1577    0.0000 C.2     1  UNL1        0.0126
     13 C           3.7841    1.6577    0.0000 C.ar    1  UNL1        0.0853
     14 C           4.6501    1.1577    0.0000 C.ar    1  UNL1       -0.0026
     15 C           4.7520   -1.9044    0.0000 C.2     1  UNL1       -0.0026
     16 C           2.8937   -2.9965    0.0000 C.2     1  UNL1       -0.0071
     17 C           3.7680    2.6992    0.0000 C.ar    1  UNL1        0.1744
     18 C           4.7688   -2.9893    0.0000 C.2     1  UNL1        0.1673
     19 C           5.5601    1.6645    0.0000 C.ar    1  UNL1       -0.0500
     20 C           3.8334   -3.5390    0.0000 C.2     1  UNL1        0.2205
     21 C           4.6660    3.2270    0.0000 C.ar    1  UNL1        0.1593
     22 C           5.5681    2.7061    0.0000 C.ar    1  UNL1       -0.0159
     23 C           2.8847    4.1891    0.0000 C.3     1  UNL1        0.0790
     24 C           6.5007   -2.9693    0.0000 C.3     1  UNL1        0.0790
     25 H           2.3811    0.4677    0.0000 H       1  UNL1        0.3798
     26 H           1.8035    0.2361    0.0000 H       1  UNL1        0.0975
     27 H           1.3964   -0.4505    0.0000 H       1  UNL1        0.0975
     28 H           1.3900   -1.2800    0.0000 H       1  UNL1        0.0373
     29 H           1.7864   -1.9728    0.0000 H       1  UNL1        0.0373
     30 H           2.3811    1.4677    0.0000 H       1  UNL1        0.1324
     31 H           5.1870   -0.1523    0.0000 H       1  UNL1        0.0688
     32 H           5.2829   -1.5841    0.0000 H       1  UNL1        0.0663
     33 H           2.3556   -3.3045    0.0000 H       1  UNL1        0.0660
     34 H           6.0934    1.3484    0.0000 H       1  UNL1        0.0625
     35 H           6.1062    3.0141    0.0000 H       1  UNL1        0.0655
     36 H           5.1979    4.5390    0.0000 H       1  UNL1        0.2923
     37 H           3.5046    4.1963    0.0000 H       1  UNL1        0.0660
     38 H           2.8775    4.8090    0.0000 H       1  UNL1        0.0660
     39 H           2.2647    4.1819    0.0000 H       1  UNL1        0.0660
     40 H           6.8169   -3.5026    0.0000 H       1  UNL1        0.0660
     41 H           7.0340   -2.6531    0.0000 H       1  UNL1        0.0660
     42 H           6.1845   -2.4360    0.0000 H       1  UNL1        0.0660
@<TRIPOS>UNITY_ATOM_ATTR
5 1
charge 1
@<TRIPOS>BOND
     1     1    17    1
     2     1    23    1
     3     2    18    1
     4     2    24    1
     5     3    20    2
     6     4    21    1
     7     4    36    1
     8     5     6    1
     9     5     7    1
    10     5    11    1
    11     5    25    1
    12     6     8    1
    13     6    26    1
    14     6    27    1
    15     7     9    2
    16     7    12    1
    17     8    10    1
    18     8    28    1
    19     8    29    1
    20     9    10    1
    21     9    15    1
    22    10    16    2
    23    11    13    2
    24    11    30    1
    25    12    14    2
    26    12    31    1
    27    13    14   ar
    28    13    17   ar
    29    14    19   ar
    30    15    18    2
    31    15    32    1
    32    16    20    1
    33    16    33    1
    34    17    21   ar
    35    18    20    1
    36    19    22   ar
    37    19    34    1
    38    21    22   ar
    39    22    35    1
    40    23    37    1
    41    23    38    1
    42    23    39    1
    43    24    40    1
    44    24    41    1
    45    24    42    1
