@<TRIPOS>MOLECULE
IMPHY005444
 49 48 0 0 0
SMALL
GASTEIGER

@<TRIPOS>ATOM
      1 O          17.2594   -0.0600    0.0000 O.3     1  UNL1       -0.3950
      2 O           2.5369    0.4400    0.0000 O.3     1  UNL1       -0.4806
      3 O           3.4030   -1.0600    0.0000 O.2     1  UNL1       -0.2510
      4 C          12.9292    0.4400    0.0000 C.3     1  UNL1       -0.0530
      5 C          12.0632   -0.0600    0.0000 C.3     1  UNL1       -0.0528
      6 C          13.7953   -0.0600    0.0000 C.3     1  UNL1       -0.0530
      7 C          11.1972    0.4400    0.0000 C.3     1  UNL1       -0.0496
      8 C          14.6613    0.4400    0.0000 C.3     1  UNL1       -0.0510
      9 C          10.3312   -0.0600    0.0000 C.3     1  UNL1       -0.0348
     10 C          15.5273   -0.0600    0.0000 C.3     1  UNL1       -0.0297
     11 C           6.8671   -0.0600    0.0000 C.3     1  UNL1       -0.0496
     12 C           6.0010    0.4400    0.0000 C.3     1  UNL1       -0.0523
     13 C           7.7331    0.4400    0.0000 C.3     1  UNL1       -0.0348
     14 C           9.4651    0.4400    0.0000 C.2     1  UNL1       -0.0879
     15 C           5.1350   -0.0600    0.0000 C.3     1  UNL1       -0.0430
     16 C           8.5991   -0.0600    0.0000 C.2     1  UNL1       -0.0879
     17 C          16.3933    0.4400    0.0000 C.3     1  UNL1        0.0442
     18 C           4.2690    0.4400    0.0000 C.3     1  UNL1        0.0448
     19 C           3.4030   -0.0600    0.0000 C.2     1  UNL1        0.3047
     20 H          13.3278    0.9149    0.0000 H       1  UNL1        0.0265
     21 H          12.5307    0.9149    0.0000 H       1  UNL1        0.0265
     22 H          11.6647   -0.5349    0.0000 H       1  UNL1        0.0265
     23 H          12.4617   -0.5349    0.0000 H       1  UNL1        0.0265
     24 H          13.3967   -0.5349    0.0000 H       1  UNL1        0.0265
     25 H          14.1938   -0.5349    0.0000 H       1  UNL1        0.0265
     26 H          11.5957    0.9149    0.0000 H       1  UNL1        0.0268
     27 H          10.7987    0.9149    0.0000 H       1  UNL1        0.0268
     28 H          15.0598    0.9149    0.0000 H       1  UNL1        0.0266
     29 H          14.2628    0.9149    0.0000 H       1  UNL1        0.0266
     30 H           9.9326   -0.5349    0.0000 H       1  UNL1        0.0307
     31 H          10.7297   -0.5349    0.0000 H       1  UNL1        0.0307
     32 H          15.1288   -0.5349    0.0000 H       1  UNL1        0.0287
     33 H          15.9258   -0.5349    0.0000 H       1  UNL1        0.0287
     34 H           6.4685   -0.5349    0.0000 H       1  UNL1        0.0268
     35 H           7.2656   -0.5349    0.0000 H       1  UNL1        0.0268
     36 H           6.3996    0.9149    0.0000 H       1  UNL1        0.0265
     37 H           5.6025    0.9149    0.0000 H       1  UNL1        0.0265
     38 H           8.1316    0.9149    0.0000 H       1  UNL1        0.0307
     39 H           7.3346    0.9149    0.0000 H       1  UNL1        0.0307
     40 H           4.7365   -0.5349    0.0000 H       1  UNL1        0.0270
     41 H           5.5335   -0.5349    0.0000 H       1  UNL1        0.0270
     42 H           9.4651    1.0600    0.0000 H       1  UNL1        0.0569
     43 H           8.5991   -0.6800    0.0000 H       1  UNL1        0.0569
     44 H          16.7919    0.9149    0.0000 H       1  UNL1        0.0557
     45 H          15.9948    0.9149    0.0000 H       1  UNL1        0.0557
     46 H           4.6675    0.9149    0.0000 H       1  UNL1        0.0377
     47 H           3.8705    0.9149    0.0000 H       1  UNL1        0.0377
     48 H          17.7963    0.2500    0.0000 H       1  UNL1        0.2094
     49 H           2.0000    0.1300    0.0000 H       1  UNL1        0.2951
@<TRIPOS>BOND
     1     1    17    1
     2     1    48    1
     3     2    19    1
     4     2    49    1
     5     3    19    2
     6     4     5    1
     7     4     6    1
     8     4    20    1
     9     4    21    1
    10     5     7    1
    11     5    22    1
    12     5    23    1
    13     6     8    1
    14     6    24    1
    15     6    25    1
    16     7     9    1
    17     7    26    1
    18     7    27    1
    19     8    10    1
    20     8    28    1
    21     8    29    1
    22     9    14    1
    23     9    30    1
    24     9    31    1
    25    10    17    1
    26    10    32    1
    27    10    33    1
    28    11    12    1
    29    11    13    1
    30    11    34    1
    31    11    35    1
    32    12    15    1
    33    12    36    1
    34    12    37    1
    35    13    16    1
    36    13    38    1
    37    13    39    1
    38    14    16    2
    39    14    42    1
    40    15    18    1
    41    15    40    1
    42    15    41    1
    43    16    43    1
    44    17    44    1
    45    17    45    1
    46    18    19    1
    47    18    46    1
    48    18    47    1
