@<TRIPOS>MOLECULE
IMPHY006678
 27 27 0 0 0
SMALL
GASTEIGER

@<TRIPOS>ATOM
      1 O           2.8660    2.3660    0.0000 O.2     1  UNL1       -0.2971
      2 C           2.8660    0.6340    0.0000 C.3     1  UNL1        0.0296
      3 C           2.0000    0.1340    0.0000 C.3     1  UNL1       -0.0370
      4 C           3.7320    0.1340    0.0000 C.3     1  UNL1       -0.0224
      5 C           2.0000   -0.8660    0.0000 C.3     1  UNL1       -0.0311
      6 C           2.3660    1.5000    0.0000 C.3     1  UNL1       -0.0525
      7 C           2.8660   -1.3660    0.0000 C.2     1  UNL1       -0.0765
      8 C           3.7320   -0.8660    0.0000 C.2     1  UNL1       -0.0841
      9 C           3.3660    1.5000    0.0000 C.2     1  UNL1        0.1364
     10 C           2.8660   -2.3660    0.0000 C.3     1  UNL1       -0.0438
     11 C           4.3660    1.5000    0.0000 C.3     1  UNL1       -0.0055
     12 H           1.7880    0.7166    0.0000 H       1  UNL1        0.0278
     13 H           1.3894    0.0263    0.0000 H       1  UNL1        0.0278
     14 H           4.3426    0.0263    0.0000 H       1  UNL1        0.0317
     15 H           3.9441    0.7166    0.0000 H       1  UNL1        0.0317
     16 H           1.3894   -0.7584    0.0000 H       1  UNL1        0.0310
     17 H           1.7880   -1.4486    0.0000 H       1  UNL1        0.0310
     18 H           2.9030    1.8100    0.0000 H       1  UNL1        0.0239
     19 H           2.0560    2.0369    0.0000 H       1  UNL1        0.0239
     20 H           1.8291    1.1900    0.0000 H       1  UNL1        0.0239
     21 H           4.2690   -1.1760    0.0000 H       1  UNL1        0.0572
     22 H           2.2460   -2.3660    0.0000 H       1  UNL1        0.0274
     23 H           2.8660   -2.9860    0.0000 H       1  UNL1        0.0274
     24 H           3.4860   -2.3660    0.0000 H       1  UNL1        0.0274
     25 H           4.3660    0.8800    0.0000 H       1  UNL1        0.0306
     26 H           4.9860    1.5000    0.0000 H       1  UNL1        0.0306
     27 H           4.3660    2.1200    0.0000 H       1  UNL1        0.0306
@<TRIPOS>BOND
     1     1     9    2
     2     2     3    1
     3     2     4    1
     4     2     6    1
     5     2     9    1
     6     3     5    1
     7     3    12    1
     8     3    13    1
     9     4     8    1
    10     4    14    1
    11     4    15    1
    12     5     7    1
    13     5    16    1
    14     5    17    1
    15     6    18    1
    16     6    19    1
    17     6    20    1
    18     7     8    2
    19     7    10    1
    20     8    21    1
    21     9    11    1
    22    10    22    1
    23    10    23    1
    24    10    24    1
    25    11    25    1
    26    11    26    1
    27    11    27    1
