@<TRIPOS>MOLECULE
IMPHY002549
 30 32 0 0 0
SMALL
GASTEIGER

@<TRIPOS>ATOM
      1 O           4.6660   -1.0969    0.0000 O.2     1  UNL1       -0.4471
      2 O           6.4144    1.9377    0.0000 O.3     1  UNL1       -0.4906
      3 O           4.6660    1.9031    0.0000 O.2     1  UNL1       -0.2863
      4 O           6.4144   -2.1315    0.0000 O.3     1  UNL1       -0.5032
      5 O           8.1962    0.9273    0.0000 O.3     1  UNL1       -0.5032
      6 O           2.9176   -2.1315    0.0000 O.3     1  UNL1       -0.5033
      7 C           5.5321    0.4031    0.0000 C.ar    1  UNL1        0.1133
      8 C           5.5321   -0.5969    0.0000 C.ar    1  UNL1        0.1843
      9 C           3.8000    0.4031    0.0000 C.ar    1  UNL1        0.0684
     10 C           4.6660    0.9031    0.0000 C.ar    1  UNL1        0.2041
     11 C           3.8000   -0.5969    0.0000 C.ar    1  UNL1        0.1806
     12 C           6.4260    0.9378    0.0000 C.ar    1  UNL1        0.1759
     13 C           6.4260   -1.1316    0.0000 C.ar    1  UNL1        0.1635
     14 C           7.3321    0.4239    0.0000 C.ar    1  UNL1        0.1629
     15 C           2.9061    0.9378    0.0000 C.ar    1  UNL1       -0.0471
     16 C           2.9061   -1.1316    0.0000 C.ar    1  UNL1        0.1598
     17 C           7.3321   -0.6177    0.0000 C.ar    1  UNL1        0.0287
     18 C           2.0000    0.4239    0.0000 C.ar    1  UNL1       -0.0574
     19 C           2.0000   -0.6177    0.0000 C.ar    1  UNL1       -0.0165
     20 C           7.2746    2.4477    0.0000 C.3     1  UNL1        0.0790
     21 H           2.9132    1.5577    0.0000 H       1  UNL1        0.0626
     22 H           7.8678   -0.9298    0.0000 H       1  UNL1        0.0693
     23 H           1.4643    0.7360    0.0000 H       1  UNL1        0.0619
     24 H           1.4643   -0.9298    0.0000 H       1  UNL1        0.0655
     25 H           6.9478   -2.4477    0.0000 H       1  UNL1        0.2923
     26 H           8.7343    0.6193    0.0000 H       1  UNL1        0.2923
     27 H           7.5908    1.9144    0.0000 H       1  UNL1        0.0660
     28 H           7.8079    2.7639    0.0000 H       1  UNL1        0.0660
     29 H           6.9584    2.9810    0.0000 H       1  UNL1        0.0660
     30 H           2.3843   -2.4477    0.0000 H       1  UNL1        0.2923
@<TRIPOS>BOND
     1     1     8   ar
     2     1    11   ar
     3     2    12    1
     4     2    20    1
     5     3    10    2
     6     4    13    1
     7     4    25    1
     8     5    14    1
     9     5    26    1
    10     6    16    1
    11     6    30    1
    12     7     8   ar
    13     7    10   ar
    14     7    12   ar
    15     8    13   ar
    16     9    10   ar
    17     9    11   ar
    18     9    15   ar
    19    11    16   ar
    20    12    14   ar
    21    13    17   ar
    22    14    17   ar
    23    15    18   ar
    24    15    21    1
    25    16    19   ar
    26    17    22    1
    27    18    19   ar
    28    18    23    1
    29    19    24    1
    30    20    27    1
    31    20    28    1
    32    20    29    1
