@<TRIPOS>MOLECULE
IMPHY004825
 52 56 0 0 0
SMALL
GASTEIGER

@<TRIPOS>ATOM
      1 O           2.9180    0.8177    0.0000 O.3     1  UNL1       -0.4829
      2 O           2.0000   -1.7308    0.0000 O.3     1  UNL1       -0.4879
      3 O           4.6744    3.9719    0.0000 O.3     1  UNL1       -0.4814
      4 O           5.5161   -0.6823    0.0000 O.2     1  UNL1       -0.2910
      5 O           6.4203    0.8146    0.0000 O.3     1  UNL1       -0.5058
      6 O           5.6405   -3.8193    0.0000 O.3     1  UNL1       -0.4914
      7 O           3.8372   -4.8790    0.0000 O.3     1  UNL1       -0.4913
      8 C           3.7841   -0.6823    0.0000 C.3     1  UNL1        0.0909
      9 C           2.9180   -0.1823    0.0000 C.3     1  UNL1        0.1479
     10 C           3.8001   -1.7238    0.0000 C.ar    1  UNL1        0.0122
     11 C           2.0080   -0.6892    0.0000 C.3     1  UNL1        0.1273
     12 C           4.6501   -0.1823    0.0000 C.2     1  UNL1        0.1813
     13 C           4.6501    0.8177    0.0000 C.ar    1  UNL1        0.1018
     14 C           3.7841    1.3177    0.0000 C.ar    1  UNL1        0.1457
     15 C           2.9021   -2.2516    0.0000 C.ar    1  UNL1        0.1283
     16 C           3.7680    2.3592    0.0000 C.ar    1  UNL1        0.0591
     17 C           4.6660    2.8870    0.0000 C.ar    1  UNL1        0.1359
     18 C           3.7348    4.5144    0.0000 C.3     1  UNL1        0.1235
     19 C           4.7520   -2.2444    0.0000 C.ar    1  UNL1       -0.0088
     20 C           5.5601    1.3245    0.0000 C.ar    1  UNL1        0.1344
     21 C           5.5681    2.3661    0.0000 C.ar    1  UNL1        0.0231
     22 C           2.8161    2.8798    0.0000 C.2     1  UNL1       -0.0478
     23 C           2.8937   -3.3365    0.0000 C.ar    1  UNL1        0.0257
     24 C           2.7993    3.9647    0.0000 C.2     1  UNL1       -0.0408
     25 C           4.7688   -3.3293    0.0000 C.ar    1  UNL1        0.1620
     26 C           3.8334   -3.8790    0.0000 C.ar    1  UNL1        0.1650
     27 C           3.2314    5.3785    0.0000 C.3     1  UNL1       -0.0215
     28 C           4.2314    5.3824    0.0000 C.3     1  UNL1       -0.0215
     29 C           5.6521   -4.8192    0.0000 C.3     1  UNL1        0.0790
     30 C           2.9731   -5.3824    0.0000 C.3     1  UNL1        0.0790
     31 H           4.5234   -1.1016    0.0000 H       1  UNL1        0.0469
     32 H           2.1852    0.2484    0.0000 H       1  UNL1        0.0778
     33 H           1.8035   -0.1039    0.0000 H       1  UNL1        0.0734
     34 H           1.3964   -0.7905    0.0000 H       1  UNL1        0.0734
     35 H           5.2829   -1.9242    0.0000 H       1  UNL1        0.0659
     36 H           6.1062    2.6741    0.0000 H       1  UNL1        0.0691
     37 H           2.2852    2.5595    0.0000 H       1  UNL1        0.0624
     38 H           2.3556   -3.6445    0.0000 H       1  UNL1        0.0692
     39 H           2.2589    4.2685    0.0000 H       1  UNL1        0.0611
     40 H           3.7672    5.6906    0.0000 H       1  UNL1        0.0271
     41 H           2.9194    5.9142    0.0000 H       1  UNL1        0.0271
     42 H           2.6957    5.0664    0.0000 H       1  UNL1        0.0271
     43 H           4.7696    5.0744    0.0000 H       1  UNL1        0.0271
     44 H           4.5394    5.9205    0.0000 H       1  UNL1        0.0271
     45 H           3.6933    5.6903    0.0000 H       1  UNL1        0.0271
     46 H           6.9608    1.1183    0.0000 H       1  UNL1        0.2922
     47 H           5.0321   -4.8264    0.0000 H       1  UNL1        0.0660
     48 H           5.6592   -5.4392    0.0000 H       1  UNL1        0.0660
     49 H           6.2720   -4.8120    0.0000 H       1  UNL1        0.0660
     50 H           2.6610   -4.8466    0.0000 H       1  UNL1        0.0660
     51 H           2.4374   -5.6944    0.0000 H       1  UNL1        0.0660
     52 H           3.2852   -5.9181    0.0000 H       1  UNL1        0.0660
@<TRIPOS>BOND
     1     1     9    1
     2     1    14    1
     3     2    11    1
     4     2    15    1
     5     3    17    1
     6     3    18    1
     7     4    12    2
     8     5    20    1
     9     5    46    1
    10     6    25    1
    11     6    29    1
    12     7    26    1
    13     7    30    1
    14     8     9    1
    15     8    10    1
    16     8    12    1
    17     8    31    1
    18     9    11    1
    19     9    32    1
    20    10    15   ar
    21    10    19   ar
    22    11    33    1
    23    11    34    1
    24    12    13    1
    25    13    14   ar
    26    13    20   ar
    27    14    16   ar
    28    15    23   ar
    29    16    17   ar
    30    16    22    1
    31    17    21   ar
    32    18    24    1
    33    18    27    1
    34    18    28    1
    35    19    25   ar
    36    19    35    1
    37    20    21   ar
    38    21    36    1
    39    22    24    2
    40    22    37    1
    41    23    26   ar
    42    23    38    1
    43    24    39    1
    44    25    26   ar
    45    27    40    1
    46    27    41    1
    47    27    42    1
    48    28    43    1
    49    28    44    1
    50    28    45    1
    51    29    47    1
    52    29    48    1
    53    29    49    1
    54    30    50    1
    55    30    51    1
    56    30    52    1
