@<TRIPOS>MOLECULE
IMPHY013460
 101 111 0 0 0
SMALL
GASTEIGER

@<TRIPOS>ATOM
      1 O          13.2647   -0.8946    0.0000 O.3     1  UNL1       -0.4535
      2 O           7.1256    3.5835    0.0000 O.3     1  UNL1       -0.4535
      3 O          13.2429    1.1368    0.0000 O.3     1  UNL1       -0.4541
      4 O           8.8958    2.5866    0.0000 O.3     1  UNL1       -0.4541
      5 O          12.3987   -2.3946    0.0000 O.2     1  UNL1       -0.2449
      6 O           6.2596    5.0835    0.0000 O.2     1  UNL1       -0.2449
      7 O          16.6825   -4.1379    0.0000 O.3     1  UNL1       -0.4526
      8 O           2.6079    2.2453    0.0000 O.3     1  UNL1       -0.4526
      9 O          15.2306   -4.9762    0.0000 O.3     1  UNL1       -0.4526
     10 O           2.6079    3.9218    0.0000 O.3     1  UNL1       -0.4526
     11 O          14.0916    2.6467    0.0000 O.2     1  UNL1       -0.2449
     12 O           9.7791    1.0968    0.0000 O.2     1  UNL1       -0.2449
     13 N          16.8899   -0.7128    0.0000 N.3     1  UNL1       -0.3014
     14 N           5.4705    0.3531    0.0000 N.3     1  UNL1       -0.3014
     15 N          11.4763    4.1166    0.0000 N.ar    1  UNL1       -0.2554
     16 C          15.9068   -0.3878    0.0000 C.3     1  UNL1        0.0234
     17 C           6.2435    1.0420    0.0000 C.3     1  UNL1        0.0234
     18 C          15.9148    0.6538    0.0000 C.3     1  UNL1       -0.0201
     19 C           7.1415    0.5143    0.0000 C.3     1  UNL1       -0.0201
     20 C          14.9968   -0.8946    0.0000 C.3     1  UNL1        0.0415
     21 C           6.2596    2.0835    0.0000 C.3     1  UNL1        0.0415
     22 C          14.1308   -0.3946    0.0000 C.3     1  UNL1        0.1482
     23 C           7.1256    2.5835    0.0000 C.3     1  UNL1        0.1482
     24 C          15.0127    1.1746    0.0000 C.3     1  UNL1       -0.0078
     25 C           8.0436    1.0351    0.0000 C.3     1  UNL1       -0.0078
     26 C          16.9028    0.9636    0.0000 C.3     1  UNL1       -0.0358
     27 C           6.9158   -0.4963    0.0000 C.3     1  UNL1       -0.0358
     28 C          14.1147    0.6469    0.0000 C.3     1  UNL1        0.1410
     29 C           8.0356    2.0767    0.0000 C.3     1  UNL1        0.1410
     30 C          17.5043    0.1207    0.0000 C.3     1  UNL1       -0.0008
     31 C           5.8851   -0.5957    0.0000 C.3     1  UNL1       -0.0008
     32 C          14.9968   -1.8946    0.0000 C.ar    1  UNL1       -0.0215
     33 C           5.3935    2.5835    0.0000 C.ar    1  UNL1       -0.0215
     34 C          17.1932   -1.6657    0.0000 C.3     1  UNL1       -0.0124
     35 C           4.4936    0.5668    0.0000 C.3     1  UNL1       -0.0124
     36 C          14.1308   -2.3946    0.0000 C.ar    1  UNL1        0.0663
     37 C           5.3935    3.5835    0.0000 C.ar    1  UNL1        0.0663
     38 C          13.2647   -1.8946    0.0000 C.2     1  UNL1        0.3400
     39 C           6.2596    4.0835    0.0000 C.2     1  UNL1        0.3400
     40 C          15.9068   -2.4015    0.0000 C.ar    1  UNL1       -0.0117
     41 C           4.4996    2.0489    0.0000 C.ar    1  UNL1       -0.0117
     42 C          14.1147   -3.4361    0.0000 C.ar    1  UNL1       -0.0019
     43 C           4.4996    4.1182    0.0000 C.ar    1  UNL1       -0.0019
     44 C          15.9148   -3.4431    0.0000 C.ar    1  UNL1        0.1665
     45 C           3.5935    2.5627    0.0000 C.ar    1  UNL1        0.1665
     46 C          13.2314    2.1368    0.0000 C.2     1  UNL1        0.3413
     47 C           9.7675    2.0967    0.0000 C.2     1  UNL1        0.3413
     48 C          15.0127   -3.9639    0.0000 C.ar    1  UNL1        0.1670
     49 C           3.5935    3.6043    0.0000 C.ar    1  UNL1        0.1670
     50 C          12.3596    2.6267    0.0000 C.ar    1  UNL1        0.0807
     51 C          10.6277    2.6067    0.0000 C.ar    1  UNL1        0.0807
     52 C          11.4994    2.1167    0.0000 C.ar    1  UNL1       -0.0303
     53 C          16.2605   -5.0835    0.0000 C.3     1  UNL1        0.2332
     54 C           2.0000    3.0835    0.0000 C.3     1  UNL1        0.2332
     55 C          12.3481    3.6266    0.0000 C.ar    1  UNL1        0.0525
     56 C          10.6161    3.6066    0.0000 C.ar    1  UNL1        0.0525
     57 C          13.2083    4.1366    0.0000 C.3     1  UNL1       -0.0215
     58 C           9.7444    4.0966    0.0000 C.3     1  UNL1       -0.0215
     59 H          15.9869   -1.2340    0.0000 H       1  UNL1        0.0472
     60 H           5.4706    1.3957    0.0000 H       1  UNL1        0.0472
     61 H          16.0080    1.4987    0.0000 H       1  UNL1        0.0318
     62 H           7.8266    0.0111    0.0000 H       1  UNL1        0.0318
     63 H          15.7296   -1.3253    0.0000 H       1  UNL1        0.0402
     64 H           5.5202    1.6642    0.0000 H       1  UNL1        0.0402
     65 H          13.3914    0.0247    0.0000 H       1  UNL1        0.0778
     66 H           7.8584    3.0142    0.0000 H       1  UNL1        0.0778
     67 H          15.4100    1.6506    0.0000 H       1  UNL1        0.0305
     68 H          14.6118    1.6475    0.0000 H       1  UNL1        0.0305
     69 H           8.2572    0.4530    0.0000 H       1  UNL1        0.0305
     70 H           8.6536    1.1459    0.0000 H       1  UNL1        0.0305
     71 H          17.4426    1.2687    0.0000 H       1  UNL1        0.0281
     72 H          16.6562    1.5324    0.0000 H       1  UNL1        0.0281
     73 H           6.9102   -1.1163    0.0000 H       1  UNL1        0.0281
     74 H           7.5318   -0.5671    0.0000 H       1  UNL1        0.0281
     75 H          14.1087    1.2668    0.0000 H       1  UNL1        0.0772
     76 H           8.5755    1.7719    0.0000 H       1  UNL1        0.0772
     77 H          17.9619   -0.2975    0.0000 H       1  UNL1        0.0427
     78 H          17.9683    0.5319    0.0000 H       1  UNL1        0.0427
     79 H           5.2941   -0.7829    0.0000 H       1  UNL1        0.0427
     80 H           6.0092   -1.2032    0.0000 H       1  UNL1        0.0427
     81 H          16.6025   -1.8538    0.0000 H       1  UNL1        0.0391
     82 H          17.3813   -2.2565    0.0000 H       1  UNL1        0.0391
     83 H          17.7840   -1.4776    0.0000 H       1  UNL1        0.0391
     84 H           4.6261    1.1725    0.0000 H       1  UNL1        0.0391
     85 H           3.8879    0.6994    0.0000 H       1  UNL1        0.0391
     86 H           4.3610   -0.0388    0.0000 H       1  UNL1        0.0391
     87 H          16.4401   -2.0853    0.0000 H       1  UNL1        0.0658
     88 H           4.5068    1.4289    0.0000 H       1  UNL1        0.0658
     89 H          13.5742   -3.7399    0.0000 H       1  UNL1        0.0663
     90 H           4.5068    4.7381    0.0000 H       1  UNL1        0.0663
     91 H          11.5066    1.4968    0.0000 H       1  UNL1        0.0635
     92 H          16.1318   -5.6900    0.0000 H       1  UNL1        0.1166
     93 H          16.8501   -5.2753    0.0000 H       1  UNL1        0.1166
     94 H           1.5391    3.4982    0.0000 H       1  UNL1        0.1166
     95 H           1.5391    2.6688    0.0000 H       1  UNL1        0.1166
     96 H          13.5244    3.6033    0.0000 H       1  UNL1        0.0293
     97 H          13.7416    4.4528    0.0000 H       1  UNL1        0.0293
     98 H          12.8921    4.6699    0.0000 H       1  UNL1        0.0293
     99 H          10.0482    4.6370    0.0000 H       1  UNL1        0.0293
    100 H           9.2039    4.4003    0.0000 H       1  UNL1        0.0293
    101 H           9.4406    3.5561    0.0000 H       1  UNL1        0.0293
@<TRIPOS>BOND
     1     1    22    1
     2     1    38    1
     3     2    23    1
     4     2    39    1
     5    28     3    1
     6     3    46    1
     7    29     4    1
     8     4    47    1
     9     5    38    2
    10     6    39    2
    11     7    44    1
    12     7    53    1
    13     8    45    1
    14     8    54    1
    15     9    48    1
    16     9    53    1
    17    10    49    1
    18    10    54    1
    19    11    46    2
    20    12    47    2
    21    13    16    1
    22    13    30    1
    23    13    34    1
    24    14    17    1
    25    14    31    1
    26    14    35    1
    27    15    55   ar
    28    15    56   ar
    29    16    18    1
    30    16    20    1
    31    16    59    1
    32    17    19    1
    33    17    21    1
    34    17    60    1
    35    18    24    1
    36    18    26    1
    37    18    61    1
    38    19    25    1
    39    19    27    1
    40    19    62    1
    41    20    22    1
    42    20    32    1
    43    20    63    1
    44    21    23    1
    45    21    33    1
    46    21    64    1
    47    22    28    1
    48    22    65    1
    49    23    29    1
    50    23    66    1
    51    24    28    1
    52    24    67    1
    53    24    68    1
    54    25    29    1
    55    25    69    1
    56    25    70    1
    57    26    30    1
    58    26    71    1
    59    26    72    1
    60    27    31    1
    61    27    73    1
    62    27    74    1
    63    28    75    1
    64    29    76    1
    65    30    77    1
    66    30    78    1
    67    31    79    1
    68    31    80    1
    69    32    36   ar
    70    32    40   ar
    71    33    37   ar
    72    33    41   ar
    73    34    81    1
    74    34    82    1
    75    34    83    1
    76    35    84    1
    77    35    85    1
    78    35    86    1
    79    36    38    1
    80    36    42   ar
    81    37    39    1
    82    37    43   ar
    83    40    44   ar
    84    40    87    1
    85    41    45   ar
    86    41    88    1
    87    42    48   ar
    88    42    89    1
    89    43    49   ar
    90    43    90    1
    91    44    48   ar
    92    45    49   ar
    93    46    50    1
    94    47    51    1
    95    50    52   ar
    96    50    55   ar
    97    51    52   ar
    98    51    56   ar
    99    52    91    1
   100    53    92    1
   101    53    93    1
   102    54    94    1
   103    54    95    1
   104    55    57    1
   105    56    58    1
   106    57    96    1
   107    57    97    1
   108    57    98    1
   109    58    99    1
   110    58   100    1
   111    58   101    1
