@<TRIPOS>MOLECULE
IMPHY010183
 40 42 0 0 0
SMALL
GASTEIGER

@<TRIPOS>ATOM
      1 O           2.6200   -1.2405    0.0000 O.3     1  UNL1       -0.3880
      2 C           4.8699   -0.3341    0.0000 C.3     1  UNL1       -0.0206
      3 C           5.7362   -0.8345    0.0000 C.3     1  UNL1       -0.0278
      4 C           5.7359    0.1659    0.0000 C.3     1  UNL1       -0.0311
      5 C           4.0038    0.1659    0.0000 C.3     1  UNL1        0.0210
      6 C           5.7359    1.1659    0.0000 C.3     1  UNL1       -0.0457
      7 C           3.1099   -0.3688    0.0000 C.3     1  UNL1        0.0729
      8 C           4.0038    1.1659    0.0000 C.2     1  UNL1       -0.0645
      9 C           4.8699    1.6659    0.0000 C.3     1  UNL1       -0.0308
     10 C           6.7362   -0.8345    0.0000 C.3     1  UNL1       -0.0593
     11 C           5.2362   -1.7006    0.0000 C.3     1  UNL1       -0.0593
     12 C           4.1776   -0.8189    0.0000 C.3     1  UNL1       -0.0529
     13 C           2.2038    0.1451    0.0000 C.3     1  UNL1       -0.0200
     14 C           3.1099    1.7006    0.0000 C.2     1  UNL1       -0.0841
     15 C           2.2038    1.1867    0.0000 C.3     1  UNL1       -0.0319
     16 C           3.4628   -1.3044    0.0000 C.3     1  UNL1       -0.0352
     17 H           4.4448   -1.0702    0.0000 H       1  UNL1        0.0318
     18 H           6.5859    0.1660    0.0000 H       1  UNL1        0.0309
     19 H           6.3465    1.0582    0.0000 H       1  UNL1        0.0271
     20 H           5.9480    1.7485    0.0000 H       1  UNL1        0.0271
     21 H           5.2684    2.1408    0.0000 H       1  UNL1        0.0310
     22 H           4.4714    2.1408    0.0000 H       1  UNL1        0.0310
     23 H           6.7362   -1.4545    0.0000 H       1  UNL1        0.0235
     24 H           7.3562   -0.8345    0.0000 H       1  UNL1        0.0235
     25 H           6.7362   -0.2145    0.0000 H       1  UNL1        0.0235
     26 H           4.6992   -1.3906    0.0000 H       1  UNL1        0.0235
     27 H           4.9262   -2.2375    0.0000 H       1  UNL1        0.0235
     28 H           5.7731   -2.0106    0.0000 H       1  UNL1        0.0235
     29 H           3.5670   -0.9266    0.0000 H       1  UNL1        0.0239
     30 H           4.2853   -1.4295    0.0000 H       1  UNL1        0.0239
     31 H           4.7882   -0.7112    0.0000 H       1  UNL1        0.0239
     32 H           1.5930    0.2512    0.0000 H       1  UNL1        0.0296
     33 H           1.9948   -0.4386    0.0000 H       1  UNL1        0.0296
     34 H           3.1171    2.3205    0.0000 H       1  UNL1        0.0572
     35 H           1.9948    1.7704    0.0000 H       1  UNL1        0.0308
     36 H           1.5930    1.0806    0.0000 H       1  UNL1        0.0308
     37 H           2.8827   -1.5232    0.0000 H       1  UNL1        0.0257
     38 H           3.6816   -1.8846    0.0000 H       1  UNL1        0.0257
     39 H           4.0429   -1.0857    0.0000 H       1  UNL1        0.0257
     40 H           2.0000   -1.2477    0.0000 H       1  UNL1        0.2102
@<TRIPOS>BOND
     1     7     1    1
     2     1    40    1
     3     2     3    1
     4     2     4    1
     5     2     5    1
     6     2    17    1
     7     3     4    1
     8     3    10    1
     9     3    11    1
    10     4     6    1
    11     4    18    1
    12     5     7    1
    13     5     8    1
    14     5    12    1
    15     6     9    1
    16     6    19    1
    17     6    20    1
    18     7    13    1
    19     7    16    1
    20     8     9    1
    21     8    14    2
    22     9    21    1
    23     9    22    1
    24    10    23    1
    25    10    24    1
    26    10    25    1
    27    11    26    1
    28    11    27    1
    29    11    28    1
    30    12    29    1
    31    12    30    1
    32    12    31    1
    33    13    15    1
    34    13    32    1
    35    13    33    1
    36    14    15    1
    37    14    34    1
    38    15    35    1
    39    15    36    1
    40    16    37    1
    41    16    38    1
    42    16    39    1
