@<TRIPOS>MOLECULE
IMPHY007244
 80 85 0 0 0
SMALL
GASTEIGER

@<TRIPOS>ATOM
      1 O          10.9753    2.1395    0.0000 O.3     1  UNL1       -0.4603
      2 O          10.8516   -0.7301    0.0000 O.3     1  UNL1       -0.3906
      3 O           2.5576   -3.0653    0.0000 O.3     1  UNL1       -0.3912
      4 O          11.5346    0.5411    0.0000 O.2     1  UNL1       -0.2501
      5 C           7.2594   -1.0662    0.0000 C.3     1  UNL1       -0.0193
      6 C           6.2818   -0.5955    0.0000 C.3     1  UNL1       -0.0257
      7 C           8.1511   -0.4481    0.0000 C.3     1  UNL1       -0.0028
      8 C           5.3384   -1.2176    0.0000 C.3     1  UNL1       -0.0250
      9 C           5.4141   -2.3453    0.0000 C.3     1  UNL1       -0.0278
     10 C           9.8518    0.7307    0.0000 C.3     1  UNL1        0.1033
     11 C           8.9509    1.1646    0.0000 C.3     1  UNL1       -0.0005
     12 C           8.0813    0.5911    0.0000 C.2     1  UNL1       -0.0627
     13 C           7.3612   -2.1918    0.0000 C.3     1  UNL1       -0.0463
     14 C           9.0896   -0.9001    0.0000 C.3     1  UNL1       -0.0162
     15 C           6.4324   -2.8356    0.0000 C.3     1  UNL1       -0.0486
     16 C           4.4466   -3.0159    0.0000 C.3     1  UNL1       -0.0056
     17 C           6.2091    0.4871    0.0000 C.3     1  UNL1       -0.0306
     18 C           9.9457   -0.3067    0.0000 C.3     1  UNL1        0.0724
     19 C           4.2898   -0.6825    0.0000 C.3     1  UNL1       -0.0447
     20 C           8.7283    2.1395    0.0000 C.3     1  UNL1       -0.0368
     21 C           9.7450    1.9075    0.0000 C.3     1  UNL1        0.0036
     22 C           7.9576   -1.7821    0.0000 C.3     1  UNL1       -0.0585
     23 C           7.1149    1.0844    0.0000 C.2     1  UNL1       -0.0836
     24 C           9.3518    2.9213    0.0000 C.3     1  UNL1        0.0028
     25 C          10.3518    2.9213    0.0000 C.3     1  UNL1        0.1093
     26 C           8.5554   -1.3628    0.0000 C.3     1  UNL1       -0.0552
     27 C           5.2713   -0.2199    0.0000 C.3     1  UNL1       -0.0590
     28 C           3.3860   -2.5051    0.0000 C.3     1  UNL1        0.0606
     29 C           3.3070   -1.3306    0.0000 C.3     1  UNL1       -0.0258
     30 C          10.7528    1.1646    0.0000 C.2     1  UNL1        0.3168
     31 C           4.0162   -3.9185    0.0000 C.3     1  UNL1       -0.0572
     32 C           5.0131   -3.8400    0.0000 C.3     1  UNL1       -0.0572
     33 C           8.5256    3.4846    0.0000 C.3     1  UNL1       -0.0564
     34 C           9.4266    3.9185    0.0000 C.3     1  UNL1       -0.0564
     35 H           6.9860   -0.1194    0.0000 H       1  UNL1        0.0315
     36 H           5.4809   -3.1926    0.0000 H       1  UNL1        0.0312
     37 H           8.1850    1.5334    0.0000 H       1  UNL1        0.0357
     38 H           7.6220   -2.7543    0.0000 H       1  UNL1        0.0271
     39 H           7.9600   -2.0311    0.0000 H       1  UNL1        0.0271
     40 H           8.7290   -1.4044    0.0000 H       1  UNL1        0.0299
     41 H           9.5248   -1.3417    0.0000 H       1  UNL1        0.0299
     42 H           6.0717   -3.3400    0.0000 H       1  UNL1        0.0268
     43 H           6.8675   -3.2772    0.0000 H       1  UNL1        0.0268
     44 H           5.9614    1.0554    0.0000 H       1  UNL1        0.0310
     45 H           5.6067    0.3403    0.0000 H       1  UNL1        0.0310
     46 H          10.4532    0.0494    0.0000 H       1  UNL1        0.0605
     47 H           4.6620   -0.1866    0.0000 H       1  UNL1        0.0271
     48 H           3.8650   -0.2309    0.0000 H       1  UNL1        0.0271
     49 H           8.3418    2.6242    0.0000 H       1  UNL1        0.0278
     50 H           8.1697    1.8705    0.0000 H       1  UNL1        0.0278
     51 H           9.3372    2.3745    0.0000 H       1  UNL1        0.0313
     52 H           9.1749    1.6636    0.0000 H       1  UNL1        0.0313
     53 H           7.5138   -2.2150    0.0000 H       1  UNL1        0.0235
     54 H           8.3905   -2.2260    0.0000 H       1  UNL1        0.0235
     55 H           8.4015   -1.3492    0.0000 H       1  UNL1        0.0235
     56 H           7.0805    1.7034    0.0000 H       1  UNL1        0.0572
     57 H          10.5410    3.7500    0.0000 H       1  UNL1        0.0739
     58 H           7.9883   -1.6134    0.0000 H       1  UNL1        0.0238
     59 H           8.8060   -1.9299    0.0000 H       1  UNL1        0.0238
     60 H           9.1224   -1.1122    0.0000 H       1  UNL1        0.0238
     61 H           5.8899   -0.1783    0.0000 H       1  UNL1        0.0235
     62 H           5.2297    0.3987    0.0000 H       1  UNL1        0.0235
     63 H           4.6527   -0.2615    0.0000 H       1  UNL1        0.0235
     64 H           3.4311   -3.1235    0.0000 H       1  UNL1        0.0599
     65 H           3.0593   -0.7622    0.0000 H       1  UNL1        0.0290
     66 H           2.7047   -1.4774    0.0000 H       1  UNL1        0.0290
     67 H           4.5022   -4.1912    0.0000 H       1  UNL1        0.0236
     68 H           5.3643   -4.3509    0.0000 H       1  UNL1        0.0236
     69 H           5.5240   -3.4887    0.0000 H       1  UNL1        0.0236
     70 H           3.4566   -3.6517    0.0000 H       1  UNL1        0.0236
     71 H           3.7493   -4.4782    0.0000 H       1  UNL1        0.0236
     72 H           4.5758   -4.1854    0.0000 H       1  UNL1        0.0236
     73 H          10.0448    3.8722    0.0000 H       1  UNL1        0.0236
     74 H           9.4729    4.5368    0.0000 H       1  UNL1        0.0236
     75 H           8.8083    3.9649    0.0000 H       1  UNL1        0.0236
     76 H           8.8748    3.9969    0.0000 H       1  UNL1        0.0236
     77 H           8.0133    3.8339    0.0000 H       1  UNL1        0.0236
     78 H           8.1763    2.9724    0.0000 H       1  UNL1        0.0236
     79 H          10.9051   -1.3478    0.0000 H       1  UNL1        0.2098
     80 H           2.0000   -2.7941    0.0000 H       1  UNL1        0.2098
@<TRIPOS>BOND
     1     1    25    1
     2     1    30    1
     3    18     2    1
     4     2    79    1
     5    28     3    1
     6     3    80    1
     7     4    30    2
     8     5     6    1
     9     5     7    1
    10     5    13    1
    11     5    22    1
    12     6     8    1
    13     6    17    1
    14     6    35    1
    15     7    12    1
    16     7    14    1
    17     7    26    1
    18     8     9    1
    19     8    19    1
    20     8    27    1
    21     9    15    1
    22     9    16    1
    23     9    36    1
    24    10    11    1
    25    10    18    1
    26    10    21    1
    27    10    30    1
    28    11    12    1
    29    11    20    1
    30    11    37    1
    31    12    23    2
    32    13    15    1
    33    13    38    1
    34    13    39    1
    35    14    18    1
    36    14    40    1
    37    14    41    1
    38    15    42    1
    39    15    43    1
    40    16    28    1
    41    16    31    1
    42    16    32    1
    43    17    23    1
    44    17    44    1
    45    17    45    1
    46    18    46    1
    47    19    29    1
    48    19    47    1
    49    19    48    1
    50    20    24    1
    51    20    49    1
    52    20    50    1
    53    21    25    1
    54    21    51    1
    55    21    52    1
    56    22    53    1
    57    22    54    1
    58    22    55    1
    59    23    56    1
    60    24    25    1
    61    24    33    1
    62    24    34    1
    63    25    57    1
    64    26    58    1
    65    26    59    1
    66    26    60    1
    67    27    61    1
    68    27    62    1
    69    27    63    1
    70    28    29    1
    71    28    64    1
    72    29    65    1
    73    29    66    1
    74    31    70    1
    75    31    71    1
    76    31    72    1
    77    32    67    1
    78    32    68    1
    79    32    69    1
    80    33    76    1
    81    33    77    1
    82    33    78    1
    83    34    73    1
    84    34    74    1
    85    34    75    1
