@<TRIPOS>MOLECULE
IMPHY015417
 44 43 0 0 0
SMALL
GASTEIGER

@<TRIPOS>ATOM
      1 C           5.4641    0.2500    0.0000 C.3     1  UNL1       -0.0439
      2 C           6.3301    0.7500    0.0000 C.3     1  UNL1       -0.0505
      3 C           7.1962    0.2500    0.0000 C.3     1  UNL1       -0.0528
      4 C           4.5981    0.7500    0.0000 C.3     1  UNL1       -0.0505
      5 C           8.0622    0.7500    0.0000 C.3     1  UNL1       -0.0530
      6 C           8.9282    0.2500    0.0000 C.3     1  UNL1       -0.0531
      7 C           3.7320    0.2500    0.0000 C.3     1  UNL1       -0.0531
      8 C           5.4641   -0.7500    0.0000 C.3     1  UNL1       -0.0624
      9 C           9.7942    0.7500    0.0000 C.3     1  UNL1       -0.0531
     10 C           2.8660    0.7500    0.0000 C.3     1  UNL1       -0.0559
     11 C          10.6603    0.2500    0.0000 C.3     1  UNL1       -0.0533
     12 C          11.5263    0.7500    0.0000 C.3     1  UNL1       -0.0559
     13 C           2.0000    0.2500    0.0000 C.3     1  UNL1       -0.0653
     14 C          12.3923    0.2500    0.0000 C.3     1  UNL1       -0.0653
     15 H           6.0010   -0.0600    0.0000 H       1  UNL1        0.0298
     16 H           6.7287    1.2250    0.0000 H       1  UNL1        0.0268
     17 H           5.9316    1.2250    0.0000 H       1  UNL1        0.0268
     18 H           6.7976   -0.2249    0.0000 H       1  UNL1        0.0265
     19 H           7.5947   -0.2249    0.0000 H       1  UNL1        0.0265
     20 H           4.9966    1.2250    0.0000 H       1  UNL1        0.0268
     21 H           4.1996    1.2250    0.0000 H       1  UNL1        0.0268
     22 H           8.4607    1.2250    0.0000 H       1  UNL1        0.0265
     23 H           7.6636    1.2250    0.0000 H       1  UNL1        0.0265
     24 H           8.5297   -0.2249    0.0000 H       1  UNL1        0.0265
     25 H           9.3267   -0.2249    0.0000 H       1  UNL1        0.0265
     26 H           3.3335   -0.2249    0.0000 H       1  UNL1        0.0265
     27 H           4.1306   -0.2249    0.0000 H       1  UNL1        0.0265
     28 H           4.8441   -0.7500    0.0000 H       1  UNL1        0.0232
     29 H           5.4641   -1.3700    0.0000 H       1  UNL1        0.0232
     30 H           6.0841   -0.7500    0.0000 H       1  UNL1        0.0232
     31 H          10.1928    1.2250    0.0000 H       1  UNL1        0.0265
     32 H           9.3957    1.2250    0.0000 H       1  UNL1        0.0265
     33 H          10.2617   -0.2249    0.0000 H       1  UNL1        0.0265
     34 H          11.0588   -0.2249    0.0000 H       1  UNL1        0.0265
     35 H           3.2646    1.2250    0.0000 H       1  UNL1        0.0263
     36 H           2.4675    1.2250    0.0000 H       1  UNL1        0.0263
     37 H          11.9248    1.2250    0.0000 H       1  UNL1        0.0263
     38 H          11.1278    1.2250    0.0000 H       1  UNL1        0.0263
     39 H           1.6900    0.7869    0.0000 H       1  UNL1        0.0230
     40 H           1.4631   -0.0600    0.0000 H       1  UNL1        0.0230
     41 H           2.3100   -0.2869    0.0000 H       1  UNL1        0.0230
     42 H          12.0823   -0.2869    0.0000 H       1  UNL1        0.0230
     43 H          12.9292   -0.0600    0.0000 H       1  UNL1        0.0230
     44 H          12.7023    0.7869    0.0000 H       1  UNL1        0.0230
@<TRIPOS>BOND
     1     1     2    1
     2     1     4    1
     3     1     8    1
     4     1    15    1
     5     2     3    1
     6     2    16    1
     7     2    17    1
     8     3     5    1
     9     3    18    1
    10     3    19    1
    11     4     7    1
    12     4    20    1
    13     4    21    1
    14     5     6    1
    15     5    22    1
    16     5    23    1
    17     6     9    1
    18     6    24    1
    19     6    25    1
    20     7    10    1
    21     7    26    1
    22     7    27    1
    23     8    28    1
    24     8    29    1
    25     8    30    1
    26     9    11    1
    27     9    31    1
    28     9    32    1
    29    10    13    1
    30    10    35    1
    31    10    36    1
    32    11    12    1
    33    11    33    1
    34    11    34    1
    35    12    14    1
    36    12    37    1
    37    12    38    1
    38    13    39    1
    39    13    40    1
    40    13    41    1
    41    14    42    1
    42    14    43    1
    43    14    44    1
