@<TRIPOS>MOLECULE
IMPHY016388
 14 14 0 0 0
SMALL
GASTEIGER

@<TRIPOS>ATOM
      1 N           3.7320   -1.0000    0.0000 N.ar    1  UNL1       -0.2630
      2 C           2.8660    0.5000    0.0000 C.ar    1  UNL1       -0.0323
      3 C           3.7320    1.0000    0.0000 C.ar    1  UNL1       -0.0560
      4 C           2.0000    1.0000    0.0000 C.3     1  UNL1       -0.0383
      5 C           2.8660   -0.5000    0.0000 C.ar    1  UNL1        0.0305
      6 C           4.5981    0.5000    0.0000 C.ar    1  UNL1       -0.0433
      7 C           4.5981   -0.5000    0.0000 C.ar    1  UNL1        0.0276
      8 H           3.7320    1.6200    0.0000 H       1  UNL1        0.0621
      9 H           2.3100    1.5369    0.0000 H       1  UNL1        0.0278
     10 H           1.4631    1.3100    0.0000 H       1  UNL1        0.0278
     11 H           1.6900    0.4631    0.0000 H       1  UNL1        0.0278
     12 H           2.3291   -0.8100    0.0000 H       1  UNL1        0.0832
     13 H           5.1350    0.8100    0.0000 H       1  UNL1        0.0633
     14 H           5.1350   -0.8100    0.0000 H       1  UNL1        0.0829
@<TRIPOS>BOND
     1     1     5   ar
     2     1     7   ar
     3     2     3   ar
     4     2     4    1
     5     2     5   ar
     6     3     6   ar
     7     3     8    1
     8     4     9    1
     9     4    10    1
    10     4    11    1
    11     5    12    1
    12     6     7   ar
    13     6    13    1
    14     7    14    1
