@<TRIPOS>MOLECULE
IMPHY015161
 50 49 0 0 0
SMALL
GASTEIGER

@<TRIPOS>ATOM
      1 O           2.5369   -0.7500    0.0000 O.3     1  UNL1       -0.3950
      2 C           8.5991   -0.2500    0.0000 C.3     1  UNL1       -0.0531
      3 C           7.7331   -0.7500    0.0000 C.3     1  UNL1       -0.0531
      4 C           9.4651   -0.7500    0.0000 C.3     1  UNL1       -0.0531
      5 C           6.8671   -0.2500    0.0000 C.3     1  UNL1       -0.0531
      6 C          10.3312   -0.2500    0.0000 C.3     1  UNL1       -0.0530
      7 C           6.0010   -0.7500    0.0000 C.3     1  UNL1       -0.0530
      8 C          11.1972   -0.7500    0.0000 C.3     1  UNL1       -0.0522
      9 C           5.1350   -0.2500    0.0000 C.3     1  UNL1       -0.0510
     10 C          12.0632   -0.2500    0.0000 C.3     1  UNL1       -0.0422
     11 C           4.2690   -0.7500    0.0000 C.3     1  UNL1       -0.0297
     12 C          12.9292   -0.7500    0.0000 C.3     1  UNL1        0.0091
     13 C           3.4030   -0.2500    0.0000 C.3     1  UNL1        0.0442
     14 C          13.7953   -0.2500    0.0000 C.1     1  UNL1       -0.1022
     15 C          14.6613    0.2500    0.0000 C.1     1  UNL1       -0.1022
     16 C          15.5273    0.7500    0.0000 C.3     1  UNL1        0.0089
     17 C          16.3933    0.2500    0.0000 C.3     1  UNL1       -0.0450
     18 C          17.2594    0.7500    0.0000 C.3     1  UNL1       -0.0644
     19 H           8.9976    0.2249    0.0000 H       1  UNL1        0.0265
     20 H           8.2006    0.2249    0.0000 H       1  UNL1        0.0265
     21 H           7.3346   -1.2250    0.0000 H       1  UNL1        0.0265
     22 H           8.1316   -1.2250    0.0000 H       1  UNL1        0.0265
     23 H           9.0666   -1.2250    0.0000 H       1  UNL1        0.0265
     24 H           9.8637   -1.2250    0.0000 H       1  UNL1        0.0265
     25 H           7.2656    0.2249    0.0000 H       1  UNL1        0.0265
     26 H           6.4685    0.2249    0.0000 H       1  UNL1        0.0265
     27 H          10.7297    0.2249    0.0000 H       1  UNL1        0.0265
     28 H           9.9326    0.2249    0.0000 H       1  UNL1        0.0265
     29 H           5.6025   -1.2250    0.0000 H       1  UNL1        0.0265
     30 H           6.3996   -1.2250    0.0000 H       1  UNL1        0.0265
     31 H          10.7987   -1.2250    0.0000 H       1  UNL1        0.0266
     32 H          11.5957   -1.2250    0.0000 H       1  UNL1        0.0266
     33 H           5.5335    0.2249    0.0000 H       1  UNL1        0.0266
     34 H           4.7365    0.2249    0.0000 H       1  UNL1        0.0266
     35 H          12.4617    0.2249    0.0000 H       1  UNL1        0.0274
     36 H          11.6647    0.2249    0.0000 H       1  UNL1        0.0274
     37 H           3.8705   -1.2250    0.0000 H       1  UNL1        0.0287
     38 H           4.6675   -1.2250    0.0000 H       1  UNL1        0.0287
     39 H          12.5307   -1.2250    0.0000 H       1  UNL1        0.0397
     40 H          13.3278   -1.2250    0.0000 H       1  UNL1        0.0397
     41 H           3.8015    0.2249    0.0000 H       1  UNL1        0.0557
     42 H           3.0044    0.2249    0.0000 H       1  UNL1        0.0557
     43 H           2.0000   -0.4400    0.0000 H       1  UNL1        0.2094
     44 H          15.9258    1.2250    0.0000 H       1  UNL1        0.0397
     45 H          15.1288    1.2250    0.0000 H       1  UNL1        0.0397
     46 H          15.9948   -0.2249    0.0000 H       1  UNL1        0.0272
     47 H          16.7919   -0.2249    0.0000 H       1  UNL1        0.0272
     48 H          17.5694    0.2131    0.0000 H       1  UNL1        0.0230
     49 H          17.7963    1.0600    0.0000 H       1  UNL1        0.0230
     50 H          16.9494    1.2869    0.0000 H       1  UNL1        0.0230
@<TRIPOS>BOND
     1     1    13    1
     2     1    43    1
     3     2     3    1
     4     2     4    1
     5     2    19    1
     6     2    20    1
     7     3     5    1
     8     3    21    1
     9     3    22    1
    10     4     6    1
    11     4    23    1
    12     4    24    1
    13     5     7    1
    14     5    25    1
    15     5    26    1
    16     6     8    1
    17     6    27    1
    18     6    28    1
    19     7     9    1
    20     7    29    1
    21     7    30    1
    22     8    10    1
    23     8    31    1
    24     8    32    1
    25     9    11    1
    26     9    33    1
    27     9    34    1
    28    10    12    1
    29    10    35    1
    30    10    36    1
    31    11    13    1
    32    11    37    1
    33    11    38    1
    34    12    14    1
    35    12    39    1
    36    12    40    1
    37    13    41    1
    38    13    42    1
    39    14    15    3
    40    15    16    1
    41    16    17    1
    42    16    44    1
    43    16    45    1
    44    17    18    1
    45    17    46    1
    46    17    47    1
    47    18    48    1
    48    18    49    1
    49    18    50    1
