@<TRIPOS>MOLECULE
IMPHY002530
 31 34 0 0 0
SMALL
GASTEIGER

@<TRIPOS>ATOM
      1 O           2.8660    0.4894    0.0000 O.2     1  UNL1       -0.4178
      2 O           6.3981   -0.5314    0.0000 O.2     1  UNL1       -0.4178
      3 O           2.8611    2.4747    0.0000 O.3     1  UNL1       -0.4885
      4 O           6.3038   -2.5636    0.0000 O.3     1  UNL1       -0.5009
      5 O           4.5632    3.4884    0.0000 O.3     1  UNL1       -0.5032
      6 O           4.5632   -3.5095    0.0000 O.3     1  UNL1       -0.5032
      7 O           7.2622    1.0136    0.0000 O.2     1  UNL1       -0.2445
      8 O           2.0000   -1.0106    0.0000 O.2     1  UNL1       -0.2445
      9 C           4.5981    0.4894    0.0000 C.ar    1  UNL1        0.0468
     10 C           4.5981   -0.5106    0.0000 C.ar    1  UNL1        0.0468
     11 C           5.4920    1.0241    0.0000 C.ar    1  UNL1        0.0744
     12 C           3.7320    0.9894    0.0000 C.ar    1  UNL1        0.1856
     13 C           3.7320   -1.0106    0.0000 C.ar    1  UNL1        0.0744
     14 C           5.4920   -1.0452    0.0000 C.ar    1  UNL1        0.1854
     15 C           3.7308    1.9811    0.0000 C.ar    1  UNL1        0.2047
     16 C           5.4542    2.0151    0.0000 C.ar    1  UNL1       -0.0017
     17 C           5.4542   -2.0362    0.0000 C.ar    1  UNL1        0.2022
     18 C           3.7308   -2.0023    0.0000 C.ar    1  UNL1       -0.0017
     19 C           6.3981    0.5102    0.0000 C.ar    1  UNL1        0.3454
     20 C           2.8660   -0.5106    0.0000 C.ar    1  UNL1        0.3454
     21 C           4.5828    2.4886    0.0000 C.ar    1  UNL1        0.1630
     22 C           4.5828   -2.5097    0.0000 C.ar    1  UNL1        0.1628
     23 C           2.8537    3.4747    0.0000 C.3     1  UNL1        0.0791
     24 H           5.9810    2.3421    0.0000 H       1  UNL1        0.0664
     25 H           3.1916   -2.3083    0.0000 H       1  UNL1        0.0664
     26 H           6.2840   -3.1833    0.0000 H       1  UNL1        0.2924
     27 H           5.0939    3.8089    0.0000 H       1  UNL1        0.2923
     28 H           4.0202   -3.8089    0.0000 H       1  UNL1        0.2923
     29 H           3.4737    3.4793    0.0000 H       1  UNL1        0.0660
     30 H           2.8491    4.0947    0.0000 H       1  UNL1        0.0660
     31 H           2.2337    3.4701    0.0000 H       1  UNL1        0.0660
@<TRIPOS>BOND
     1     1    12   ar
     2     1    20   ar
     3     2    14   ar
     4     2    19   ar
     5     3    15    1
     6     3    23    1
     7     4    17    1
     8     4    26    1
     9     5    21    1
    10     5    27    1
    11     6    22    1
    12     6    28    1
    13     7    19    2
    14     8    20    2
    15     9    10   ar
    16     9    11   ar
    17     9    12   ar
    18    10    13   ar
    19    10    14   ar
    20    11    16   ar
    21    11    19   ar
    22    12    15   ar
    23    13    18   ar
    24    13    20   ar
    25    14    17   ar
    26    15    21   ar
    27    16    21   ar
    28    16    24    1
    29    17    22   ar
    30    18    22   ar
    31    18    25    1
    32    23    29    1
    33    23    30    1
    34    23    31    1
