@<TRIPOS>MOLECULE
IMPHY002105
 17 17 0 0 0
SMALL
GASTEIGER

@<TRIPOS>ATOM
      1 O           2.8090   -0.8242    0.0000 O.2     1  UNL1       -0.4598
      2 O           5.3122    0.1237    0.0000 O.2     1  UNL1       -0.2891
      3 C           3.3090    0.7146    0.0000 C.ar    1  UNL1       -0.0019
      4 C           3.6180   -0.2365    0.0000 C.ar    1  UNL1        0.1724
      5 C           2.3090    0.7146    0.0000 C.ar    1  UNL1       -0.0203
      6 C           3.8968    1.5236    0.0000 C.3     1  UNL1       -0.0360
      7 C           4.5691   -0.5455    0.0000 C.2     1  UNL1        0.1951
      8 C           2.0000   -0.2365    0.0000 C.ar    1  UNL1        0.0930
      9 C           4.7770   -1.5236    0.0000 C.3     1  UNL1        0.0017
     10 H           1.9446    1.2162    0.0000 H       1  UNL1        0.0652
     11 H           4.3984    1.1592    0.0000 H       1  UNL1        0.0279
     12 H           4.2612    2.0252    0.0000 H       1  UNL1        0.0279
     13 H           3.3952    1.8880    0.0000 H       1  UNL1        0.0279
     14 H           1.4103   -0.4280    0.0000 H       1  UNL1        0.1029
     15 H           4.1706   -1.6525    0.0000 H       1  UNL1        0.0310
     16 H           4.9059   -2.1301    0.0000 H       1  UNL1        0.0310
     17 H           5.3834   -1.3947    0.0000 H       1  UNL1        0.0310
@<TRIPOS>BOND
     1     1     4   ar
     2     1     8   ar
     3     2     7    2
     4     3     4   ar
     5     3     5   ar
     6     3     6    1
     7     4     7    1
     8     5     8   ar
     9     5    10    1
    10     6    11    1
    11     6    12    1
    12     6    13    1
    13     7     9    1
    14     8    14    1
    15     9    15    1
    16     9    16    1
    17     9    17    1
