@<TRIPOS>MOLECULE
IMPHY015238
 31 30 0 0 0
SMALL
GASTEIGER

@<TRIPOS>ATOM
      1 O          12.3923   -0.5600    0.0000 O.2     1  UNL1       -0.2963
      2 C           5.4641   -0.5600    0.0000 C.3     1  UNL1       -0.0313
      3 C           8.0622   -0.0600    0.0000 C.3     1  UNL1       -0.0313
      4 C           4.5981   -0.0600    0.0000 C.3     1  UNL1       -0.0313
      5 C           8.9282   -0.5600    0.0000 C.3     1  UNL1       -0.0309
      6 C           6.3301   -0.0600    0.0000 C.2     1  UNL1       -0.0876
      7 C           7.1962   -0.5600    0.0000 C.2     1  UNL1       -0.0876
      8 C           3.7320   -0.5600    0.0000 C.2     1  UNL1       -0.0879
      9 C           9.7942   -0.0600    0.0000 C.2     1  UNL1       -0.0807
     10 C           2.8660   -0.0600    0.0000 C.2     1  UNL1       -0.0910
     11 C          10.6603   -0.5600    0.0000 C.2     1  UNL1       -0.0264
     12 C           2.0000   -0.5600    0.0000 C.3     1  UNL1       -0.0468
     13 C          11.5263   -0.0600    0.0000 C.2     1  UNL1        0.1428
     14 H           5.0656   -1.0350    0.0000 H       1  UNL1        0.0310
     15 H           5.8626   -1.0350    0.0000 H       1  UNL1        0.0310
     16 H           8.4607    0.4149    0.0000 H       1  UNL1        0.0310
     17 H           7.6636    0.4149    0.0000 H       1  UNL1        0.0310
     18 H           4.9966    0.4149    0.0000 H       1  UNL1        0.0310
     19 H           4.1996    0.4149    0.0000 H       1  UNL1        0.0310
     20 H           8.5297   -1.0350    0.0000 H       1  UNL1        0.0310
     21 H           9.3267   -1.0350    0.0000 H       1  UNL1        0.0310
     22 H           6.3301    0.5600    0.0000 H       1  UNL1        0.0569
     23 H           7.1962   -1.1800    0.0000 H       1  UNL1        0.0569
     24 H           3.7320   -1.1800    0.0000 H       1  UNL1        0.0569
     25 H           9.7942    0.5600    0.0000 H       1  UNL1        0.0573
     26 H           2.8660    0.5600    0.0000 H       1  UNL1        0.0566
     27 H          10.6603   -1.1800    0.0000 H       1  UNL1        0.0646
     28 H           1.6900   -0.0231    0.0000 H       1  UNL1        0.0272
     29 H           1.4631   -0.8700    0.0000 H       1  UNL1        0.0272
     30 H           2.3100   -1.0969    0.0000 H       1  UNL1        0.0272
     31 H          11.5263    0.5600    0.0000 H       1  UNL1        0.1075
@<TRIPOS>BOND
     1     1    13    2
     2     2     4    1
     3     2     6    1
     4     2    14    1
     5     2    15    1
     6     3     5    1
     7     3     7    1
     8     3    16    1
     9     3    17    1
    10     4     8    1
    11     4    18    1
    12     4    19    1
    13     5     9    1
    14     5    20    1
    15     5    21    1
    16     6     7    2
    17     6    22    1
    18     7    23    1
    19     8    10    2
    20     8    24    1
    21     9    11    2
    22     9    25    1
    23    10    12    1
    24    10    26    1
    25    11    13    1
    26    11    27    1
    27    12    28    1
    28    12    29    1
    29    12    30    1
    30    13    31    1
