@<TRIPOS>MOLECULE
IMPHY002355
 74 82 0 0 0
SMALL
GASTEIGER

@<TRIPOS>ATOM
      1 C        2363.7700 2300.4500    0.0000 C.3     1  UNL1        0.0003
      2 C        2363.7700 2340.4500    0.0000 C.3     1  UNL1        0.0035
      3 C        2363.7700 2380.8400    0.0000 C.3     1  UNL1        0.0046
      4 C        2398.3100 2400.9900    0.0000 C.3     1  UNL1        0.0009
      5 C        2363.6700 2420.9400    0.0000 C.3     1  UNL1        0.0000
      6 C        2432.8500 2380.8400    0.0000 C.3     1  UNL1        0.0093
      7 C        2432.8500 2340.4500    0.0000 C.3     1  UNL1        0.0005
      8 C        2398.3100 2320.3000    0.0000 C.3     1  UNL1        0.0003
      9 C        2467.3900 2400.9900    0.0000 C.3     1  UNL1        0.0834
     10 C        2502.3300 2381.5400    0.0000 C.2     1  UNL1        0.2089
     11 O        2502.3300 2341.5400    0.0000 O.2     1  UNL1       -0.2882
     12 C        2467.3900 2360.9900    0.0000 C.3     1  UNL1        0.0102
     13 C        2467.3900 2441.2900    0.0000 C.3     1  UNL1        0.1246
     14 C        2432.8500 2461.4400    0.0000 C.3     1  UNL1        0.0301
     15 C        2398.3100 2441.2900    0.0000 C.3     1  UNL1        0.0025
     16 O        2502.0300 2461.2400    0.0000 O.3     1  UNL1       -0.3307
     17 C        2536.6700 2441.2900    0.0000 C.3     1  UNL1        0.2661
     18 C        2571.2200 2461.2400    0.0000 C.3     1  UNL1        0.2066
     19 O        2571.2200 2659.9500    0.0000 O.3     1  UNL1       -0.3231
     20 C        2605.9600 2680.0000    0.0000 C.3     1  UNL1        0.2694
     21 C        2640.5000 2659.9500    0.0000 C.3     1  UNL1        0.2373
     22 O        2640.5000 2619.9500    0.0000 O.3     1  UNL1       -0.2150
     23 C        2675.2400 2680.0000    0.0000 C.3     1  UNL1        0.1826
     24 O        2719.8000 2655.1900    0.0000 O.3     1  UNL1       -0.3256
     25 C        2719.8000 2615.1900    0.0000 C.3     1  UNL1        0.2695
     26 O        2685.1600 2595.1400    0.0000 O.3     1  UNL1       -0.3256
     27 C        2685.1600 2555.2400    0.0000 C.3     1  UNL1        0.1835
     28 C        2650.1200 2535.7800    0.0000 C.3     1  UNL1        0.2142
     29 O        2615.4800 2555.8300    0.0000 O.3     1  UNL1       -0.2176
     30 C        2719.8000 2535.1900    0.0000 C.3     1  UNL1        0.2144
     31 C        2754.4400 2555.1400    0.0000 C.3     1  UNL1        0.2198
     32 C        2754.4400 2595.2400    0.0000 C.3     1  UNL1        0.2406
     33 O        2789.3800 2614.5900    0.0000 O.3     1  UNL1       -0.2149
     34 O        2788.7800 2534.5900    0.0000 O.3     1  UNL1       -0.2174
     35 O        2719.8000 2495.1900    0.0000 O.3     1  UNL1       -0.2176
     36 C        2675.2400 2720.0000    0.0000 C.3     1  UNL1        0.1746
     37 C        2640.5000 2739.9500    0.0000 C.3     1  UNL1        0.1475
     38 O        2605.9600 2720.0000    0.0000 O.3     1  UNL1       -0.3285
     39 C        2640.5000 2779.9500    0.0000 C.3     1  UNL1        0.0348
     40 O        2709.8800 2739.9500    0.0000 O.3     1  UNL1       -0.3259
     41 C        2744.5200 2720.0000    0.0000 C.3     1  UNL1        0.2695
     42 C        2779.0600 2739.9500    0.0000 C.3     1  UNL1        0.2406
     43 O        2779.0600 2779.9500    0.0000 O.3     1  UNL1       -0.2149
     44 C        2813.8000 2720.0000    0.0000 C.3     1  UNL1        0.2198
     45 O        2848.4400 2739.9500    0.0000 O.3     1  UNL1       -0.2174
     46 C        2813.8000 2680.0000    0.0000 C.3     1  UNL1        0.2143
     47 C        2779.0600 2659.9500    0.0000 C.3     1  UNL1        0.1803
     48 O        2744.5200 2680.0000    0.0000 O.3     1  UNL1       -0.3257
     49 O        2848.4400 2659.9500    0.0000 O.3     1  UNL1       -0.2176
     50 C        2605.9600 2441.2900    0.0000 C.3     1  UNL1        0.2165
     51 O        2640.6000 2461.2400    0.0000 O.3     1  UNL1       -0.2175
     52 C        2605.9600 2401.2900    0.0000 C.3     1  UNL1        0.2117
     53 C        2571.2200 2381.2400    0.0000 C.3     1  UNL1        0.1508
     54 O        2536.6700 2401.2900    0.0000 O.3     1  UNL1       -0.3284
     55 C        2571.2200 2341.2400    0.0000 C.3     1  UNL1        0.0350
     56 O        2640.6000 2381.2400    0.0000 O.3     1  UNL1       -0.2177
     57 C        2329.1300 2400.9900    0.0000 C.3     1  UNL1        0.0254
     58 C        2294.5900 2380.8400    0.0000 C.2     1  UNL1       -0.0346
     59 C        2294.5900 2340.4500    0.0000 C.2     1  UNL1       -0.0489
     60 C        2329.1300 2320.3000    0.0000 C.3     1  UNL1        0.0149
     61 C        2365.9600 2284.8600    0.0000 C.3     1  UNL1        0.0040
     62 C        2329.1300 2280.0000    0.0000 C.3     1  UNL1        0.0043
     63 C        2294.5900 2259.8500    0.0000 C.3     1  UNL1        0.0113
     64 C        2260.0500 2280.0000    0.0000 C.3     1  UNL1        0.0972
     65 C        2260.0500 2320.3000    0.0000 C.3     1  UNL1        0.0281
     66 C        2225.5100 2340.4500    0.0000 C.3     1  UNL1        0.0046
     67 C        2190.9700 2320.3000    0.0000 C.3     1  UNL1        0.0003
     68 C        2190.9700 2280.0000    0.0000 C.3     1  UNL1        0.0006
     69 C        2225.5100 2259.8500    0.0000 C.3     1  UNL1        0.0110
     70 C        2177.2700 2357.9200    0.0000 C.3     1  UNL1        0.0000
     71 C        2151.5600 2313.3500    0.0000 C.3     1  UNL1        0.0000
     72 C        2260.0500 2240.0000    0.0000 C.2     1  UNL1        0.3641
     73 O        2225.4100 2220.0500    0.0000 O.co2   1  UNL1       -0.2457
     74 O        2294.6900 2220.0500    0.0000 O.co2   1  UNL1       -0.2457
@<TRIPOS>BOND
     1     1     2    1
     2     2     3    1
     3     2     8    1
     4     2    60    1
     5     3     4    1
     6     3    57    1
     7     4     5    1
     8     4     6    1
     9     4    15    1
    10     6     9    1
    11     7     6    1
    12     8     7    1
    13     9    10    1
    14     9    12    1
    15     9    13    1
    16    10    11    2
    17    13    16    1
    18    14    13    1
    19    15    14    1
    20    16    17    1
    21    17    18    1
    22    17    54    1
    23    18    19    1
    24    18    50    1
    25    19    20    1
    26    20    21    1
    27    20    38    1
    28    21    22    1
    29    21    23    1
    30    23    24    1
    31    23    36    1
    32    24    25    1
    33    25    26    1
    34    25    32    1
    35    26    27    1
    36    27    28    1
    37    27    30    1
    38    28    29    1
    39    30    35    1
    40    31    30    1
    41    31    34    1
    42    32    31    1
    43    32    33    1
    44    36    40    1
    45    37    36    1
    46    37    39    1
    47    38    37    1
    48    40    41    1
    49    41    42    1
    50    41    48    1
    51    42    43    1
    52    42    44    1
    53    44    45    1
    54    44    46    1
    55    46    49    1
    56    47    46    1
    57    48    47    1
    58    50    51    1
    59    50    52    1
    60    52    56    1
    61    53    52    1
    62    53    55    1
    63    54    53    1
    64    57    58    1
    65    59    58    2
    66    59    65    1
    67    60    59    1
    68    60    61    1
    69    60    62    1
    70    62    63    1
    71    63    64    1
    72    64    69    1
    73    64    72    1
    74    65    64    1
    75    65    66    1
    76    66    67    1
    77    67    68    1
    78    67    70    1
    79    67    71    1
    80    69    68    1
    81    72    73   ar
    82    72    74   ar
