@<TRIPOS>MOLECULE
IMPHY005118
 56 60 0 0 0
SMALL
GASTEIGER

@<TRIPOS>ATOM
      1 O           2.9785   -0.2788    0.0000 O.3     1  UNL1       -0.3417
      2 O           3.8155   -0.7545    0.0000 O.3     1  UNL1       -0.3850
      3 O           2.8836   -2.0526    0.0000 O.3     1  UNL1       -0.3639
      4 O           5.4476    2.3883    0.0000 O.3     1  UNL1       -0.3876
      5 C           4.5816   -0.1117    0.0000 C.3     1  UNL1        0.1064
      6 C           4.3723   -1.0835    0.0000 C.3     1  UNL1        0.0561
      7 C           5.4476    0.3883    0.0000 C.3     1  UNL1       -0.0005
      8 C           5.4476    1.3883    0.0000 C.3     1  UNL1        0.0075
      9 C           3.7155    0.3883    0.0000 C.3     1  UNL1        0.0972
     10 C           3.3836   -1.1866    0.0000 C.3     1  UNL1        0.1766
     11 C           4.5816    1.8883    0.0000 C.3     1  UNL1        0.0774
     12 C           3.7155    1.3883    0.0000 C.3     1  UNL1        0.0201
     13 C           5.3573   -1.2987    0.0000 C.3     1  UNL1       -0.0253
     14 C           5.1589   -0.4950    0.0000 C.3     1  UNL1        0.0102
     15 C           5.9520   -0.4846    0.0000 C.3     1  UNL1       -0.0431
     16 C           2.9785    2.0554    0.0000 C.3     1  UNL1       -0.0359
     17 C           4.3723    2.8601    0.0000 C.3     1  UNL1       -0.0229
     18 C           5.0402   -1.8278    0.0000 C.3     1  UNL1       -0.0516
     19 C           6.3794    1.7513    0.0000 C.3     1  UNL1       -0.0564
     20 C           3.3836    2.9631    0.0000 C.3     1  UNL1       -0.0474
     21 C           5.7118   -2.2337    0.0000 C.3     1  UNL1       -0.0431
     22 C           2.0000    1.8491    0.0000 C.3     1  UNL1       -0.0620
     23 C           6.6988   -2.3942    0.0000 C.3     1  UNL1       -0.0624
     24 C           5.0793   -3.0083    0.0000 C.3     1  UNL1       -0.0624
     25 H           6.1837    0.8133    0.0000 H       1  UNL1        0.0336
     26 H           2.8784    0.5359    0.0000 H       1  UNL1        0.0630
     27 H           2.8784    1.2407    0.0000 H       1  UNL1        0.0357
     28 H           5.9717   -1.3817    0.0000 H       1  UNL1        0.0311
     29 H           5.2802   -1.1030    0.0000 H       1  UNL1        0.0323
     30 H           5.7787   -0.4811    0.0000 H       1  UNL1        0.0323
     31 H           6.3973   -0.9160    0.0000 H       1  UNL1        0.0272
     32 H           6.4408   -0.1032    0.0000 H       1  UNL1        0.0272
     33 H           2.5890    2.5377    0.0000 H       1  UNL1        0.0303
     34 H           4.9888    2.9261    0.0000 H       1  UNL1        0.0293
     35 H           4.3714    3.4801    0.0000 H       1  UNL1        0.0293
     36 H           4.5787   -2.2419    0.0000 H       1  UNL1        0.0238
     37 H           5.4542   -2.2893    0.0000 H       1  UNL1        0.0238
     38 H           5.5016   -1.4138    0.0000 H       1  UNL1        0.0238
     39 H           6.6044    1.1736    0.0000 H       1  UNL1        0.0236
     40 H           6.9571    1.9764    0.0000 H       1  UNL1        0.0236
     41 H           6.1543    2.3290    0.0000 H       1  UNL1        0.0236
     42 H           3.5124    3.5696    0.0000 H       1  UNL1        0.0269
     43 H           2.7940    3.1549    0.0000 H       1  UNL1        0.0269
     44 H           5.0998   -2.1342    0.0000 H       1  UNL1        0.0298
     45 H           3.9232   -1.3651    0.0000 H       1  UNL1        0.2103
     46 H           2.2636   -2.0526    0.0000 H       1  UNL1        0.2128
     47 H           5.4476    3.0083    0.0000 H       1  UNL1        0.2102
     48 H           1.8721    2.4558    0.0000 H       1  UNL1        0.0233
     49 H           1.3933    1.7213    0.0000 H       1  UNL1        0.0233
     50 H           2.1279    1.2425    0.0000 H       1  UNL1        0.0233
     51 H           6.5993   -3.0062    0.0000 H       1  UNL1        0.0232
     52 H           7.3108   -2.4937    0.0000 H       1  UNL1        0.0232
     53 H           6.7983   -1.7822    0.0000 H       1  UNL1        0.0232
     54 H           4.5991   -2.6161    0.0000 H       1  UNL1        0.0232
     55 H           4.6871   -3.4885    0.0000 H       1  UNL1        0.0232
     56 H           5.5595   -3.4004    0.0000 H       1  UNL1        0.0232
@<TRIPOS>BOND
     1     1     9    1
     2     1    10    1
     3     5     2    1
     4     2    45    1
     5    10     3    1
     6     3    46    1
     7    11     4    1
     8     4    47    1
     9     5     6    1
    10     5     7    1
    11     5     9    1
    12     6    10    1
    13     6    13    1
    14     6    18    1
    15     7     8    1
    16     7    15    1
    17     7    25    1
    18     8    11    1
    19     8    14    1
    20     8    19    1
    21     9    12    1
    22     9    26    1
    23    10    14    1
    24    11    12    1
    25    11    17    1
    26    12    16    1
    27    12    27    1
    28    13    15    1
    29    13    21    1
    30    13    28    1
    31    14    29    1
    32    14    30    1
    33    15    31    1
    34    15    32    1
    35    16    20    1
    36    16    22    1
    37    16    33    1
    38    17    20    1
    39    17    34    1
    40    17    35    1
    41    18    36    1
    42    18    37    1
    43    18    38    1
    44    19    39    1
    45    19    40    1
    46    19    41    1
    47    20    42    1
    48    20    43    1
    49    21    23    1
    50    21    24    1
    51    21    44    1
    52    22    48    1
    53    22    49    1
    54    22    50    1
    55    23    51    1
    56    23    52    1
    57    23    53    1
    58    24    54    1
    59    24    55    1
    60    24    56    1
