@<TRIPOS>MOLECULE
IMPHY008381
 105 111 0 0 0
SMALL
GASTEIGER

@<TRIPOS>ATOM
      1 O           5.1606   -0.5098    0.0000 O.3     1  UNL1       -0.4762
      2 O           6.9527    0.5248    0.0000 O.3     1  UNL1       -0.4767
      3 O           4.6024   -1.8702    0.0000 O.3     1  UNL1       -0.4609
      4 O           2.5405    2.0285    0.0000 O.2     1  UNL1       -0.5030
      5 O           2.5247    4.0768    0.0000 O.2     1  UNL1       -0.2836
      6 O           8.0724   -4.0339    0.0000 O.3     1  UNL1       -0.3872
      7 O           9.6290   -0.0248    0.0000 O.3     1  UNL1       -0.3844
      8 O           3.2711   -0.7621    0.0000 O.2     1  UNL1       -0.2512
      9 O           4.3024    6.1009    0.0000 O.3     1  UNL1       -0.3844
     10 C           5.1767    0.5317    0.0000 C.3     1  UNL1        0.1685
     11 C           4.3107    1.0317    0.0000 C.3     1  UNL1        0.0414
     12 C           5.7114   -0.3623    0.0000 C.3     1  UNL1        0.0465
     13 C           5.2422   -1.1017    0.0000 C.3     1  UNL1        0.1120
     14 C           3.7760    0.1377    0.0000 C.3     1  UNL1       -0.0363
     15 C           6.0427    1.0317    0.0000 C.3     1  UNL1        0.1602
     16 C           4.2452   -0.9350    0.0000 C.3     1  UNL1       -0.0141
     17 C           4.3107    2.0317    0.0000 C.2     1  UNL1        0.0147
     18 C           3.4446    1.5317    0.0000 C.3     1  UNL1       -0.0516
     19 C           6.3452    0.4111    0.0000 C.3     1  UNL1       -0.0526
     20 C           6.7139   -0.9257    0.0000 C.3     1  UNL1       -0.0526
     21 C           6.0427    2.0317    0.0000 C.2     1  UNL1       -0.0326
     22 C           5.1767    2.5317    0.0000 C.2     1  UNL1       -0.0175
     23 C           6.0587   -1.0376    0.0000 C.ar    1  UNL1        0.1672
     24 C           6.9608   -0.5168    0.0000 C.ar    1  UNL1        0.1692
     25 C           3.4007    2.5385    0.0000 C.2     1  UNL1        0.1684
     26 C           6.0420   -2.1225    0.0000 C.ar    1  UNL1        0.0076
     27 C           5.1928    3.5732    0.0000 C.2     1  UNL1       -0.0447
     28 C           7.9086   -1.0447    0.0000 C.ar    1  UNL1        0.0290
     29 C           5.3274   -4.4090    0.0000 C.3     1  UNL1       -0.0118
     30 C           6.9774   -2.6722    0.0000 C.ar    1  UNL1       -0.0116
     31 C           3.3926    3.5801    0.0000 C.2     1  UNL1        0.2262
     32 C           5.0510   -2.5103    0.0000 C.3     1  UNL1       -0.0023
     33 C           4.2947    4.1009    0.0000 C.2     1  UNL1        0.0342
     34 C           4.8556   -5.4120    0.0000 C.3     1  UNL1       -0.0280
     35 C           4.7336   -3.5260    0.0000 C.2     1  UNL1       -0.0653
     36 C           7.1208   -3.7266    0.0000 C.3     1  UNL1        0.0811
     37 C           6.3878   -4.4982    0.0000 C.3     1  UNL1       -0.0156
     38 C           7.9170   -2.1297    0.0000 C.ar    1  UNL1       -0.0462
     39 C           3.6169   -1.7004    0.0000 C.2     1  UNL1        0.3042
     40 C           8.7688   -0.5347    0.0000 C.3     1  UNL1        0.0889
     41 C           3.7503   -5.4964    0.0000 C.3     1  UNL1       -0.0439
     42 C           4.2986    5.1009    0.0000 C.3     1  UNL1        0.0890
     43 C           3.6267   -3.5847    0.0000 C.2     1  UNL1       -0.0841
     44 C           3.1317   -4.5766    0.0000 C.3     1  UNL1       -0.0340
     45 C           4.9355   -6.4088    0.0000 C.3     1  UNL1       -0.0593
     46 C           5.7588   -5.8412    0.0000 C.3     1  UNL1       -0.0593
     47 C           2.9772   -2.4691    0.0000 C.3     1  UNL1        0.0332
     48 C           9.2788   -1.3949    0.0000 C.3     1  UNL1       -0.0320
     49 C           8.2588    0.3254    0.0000 C.3     1  UNL1       -0.0320
     50 C           5.2986    5.0971    0.0000 C.3     1  UNL1       -0.0320
     51 C           3.2986    5.1048    0.0000 C.3     1  UNL1       -0.0320
     52 H           5.7432   -1.4669    0.0000 H       1  UNL1        0.0740
     53 H           3.3205    0.5583    0.0000 H       1  UNL1        0.0276
     54 H           3.2710   -0.2219    0.0000 H       1  UNL1        0.0276
     55 H           6.7756    1.4623    0.0000 H       1  UNL1        0.0820
     56 H           3.6401   -1.0701    0.0000 H       1  UNL1        0.0301
     57 H           4.2619   -1.5548    0.0000 H       1  UNL1        0.0301
     58 H           3.7546    2.0686    0.0000 H       1  UNL1        0.0240
     59 H           2.9077    1.8417    0.0000 H       1  UNL1        0.0240
     60 H           3.1346    0.9947    0.0000 H       1  UNL1        0.0240
     61 H           6.8248    0.0181    0.0000 H       1  UNL1        0.0237
     62 H           6.7382    0.8907    0.0000 H       1  UNL1        0.0237
     63 H           5.8657    0.8042    0.0000 H       1  UNL1        0.0237
     64 H           6.4101   -1.4662    0.0000 H       1  UNL1        0.0237
     65 H           7.2544   -1.2295    0.0000 H       1  UNL1        0.0237
     66 H           7.0176   -0.3852    0.0000 H       1  UNL1        0.0237
     67 H           6.5797    2.3417    0.0000 H       1  UNL1        0.0616
     68 H           5.7332    3.8769    0.0000 H       1  UNL1        0.0628
     69 H           5.7524   -5.1452    0.0000 H       1  UNL1        0.0352
     70 H           4.9597   -1.8970    0.0000 H       1  UNL1        0.0360
     71 H           4.4328   -2.4622    0.0000 H       1  UNL1        0.0360
     72 H           7.5962   -3.3287    0.0000 H       1  UNL1        0.0644
     73 H           6.1992   -5.0888    0.0000 H       1  UNL1        0.0299
     74 H           6.9214   -4.8140    0.0000 H       1  UNL1        0.0299
     75 H           8.4551   -2.4376    0.0000 H       1  UNL1        0.0626
     76 H           3.1842   -5.7492    0.0000 H       1  UNL1        0.0274
     77 H           3.9026   -6.0974    0.0000 H       1  UNL1        0.0274
     78 H           2.0000    2.3323    0.0000 H       1  UNL1        0.2923
     79 H           3.2866   -3.0663    0.0000 H       1  UNL1        0.0572
     80 H           2.6325   -4.2089    0.0000 H       1  UNL1        0.0308
     81 H           2.6840   -5.0055    0.0000 H       1  UNL1        0.0308
     82 H           5.4927   -6.4012    0.0000 H       1  UNL1        0.0235
     83 H           6.3188   -6.1073    0.0000 H       1  UNL1        0.0235
     84 H           4.3174   -6.4584    0.0000 H       1  UNL1        0.0235
     85 H           4.9850   -7.0268    0.0000 H       1  UNL1        0.0235
     86 H           5.5535   -6.3593    0.0000 H       1  UNL1        0.0235
     87 H           6.0249   -5.2812    0.0000 H       1  UNL1        0.0235
     88 H           2.5006   -2.0725    0.0000 H       1  UNL1        0.0342
     89 H           2.5805   -2.9457    0.0000 H       1  UNL1        0.0342
     90 H           3.4537   -2.8657    0.0000 H       1  UNL1        0.0342
     91 H           8.7455   -1.7111    0.0000 H       1  UNL1        0.0260
     92 H           9.5950   -1.9282    0.0000 H       1  UNL1        0.0260
     93 H           8.7922    0.6416    0.0000 H       1  UNL1        0.0260
     94 H           7.9427    0.8588    0.0000 H       1  UNL1        0.0260
     95 H           7.7255    0.0092    0.0000 H       1  UNL1        0.0260
     96 H           9.8121   -1.0788    0.0000 H       1  UNL1        0.0260
     97 H           5.2962    4.4771    0.0000 H       1  UNL1        0.0260
     98 H           5.9186    5.0947    0.0000 H       1  UNL1        0.0260
     99 H           3.3010    5.7248    0.0000 H       1  UNL1        0.0260
    100 H           2.6786    5.1072    0.0000 H       1  UNL1        0.0260
    101 H           5.3010    5.7171    0.0000 H       1  UNL1        0.0260
    102 H           3.2962    4.4848    0.0000 H       1  UNL1        0.0260
    103 H           8.2024   -4.6401    0.0000 H       1  UNL1        0.2102
    104 H          10.1695   -0.3285    0.0000 H       1  UNL1        0.2106
    105 H           4.8406    6.4088    0.0000 H       1  UNL1        0.2106
@<TRIPOS>BOND
     1    10     1    1
     2     1    23    1
     3     2    15    1
     4     2    24    1
     5    13     3    1
     6     3    39    1
     7     4    25    1
     8     4    78    1
     9     5    31    2
    10    36     6    1
    11     6   103    1
    12     7    40    1
    13     7   104    1
    14     8    39    2
    15     9    42    1
    16     9   105    1
    17    10    11    1
    18    10    12    1
    19    10    15    1
    20    11    14    1
    21    11    17    1
    22    11    18    1
    23    12    13    1
    24    12    19    1
    25    12    20    1
    26    13    16    1
    27    13    52    1
    28    14    16    1
    29    14    53    1
    30    14    54    1
    31    15    21    1
    32    15    55    1
    33    16    56    1
    34    16    57    1
    35    17    22    1
    36    17    25    2
    37    18    58    1
    38    18    59    1
    39    18    60    1
    40    19    61    1
    41    19    62    1
    42    19    63    1
    43    20    64    1
    44    20    65    1
    45    20    66    1
    46    21    22    2
    47    21    67    1
    48    22    27    1
    49    23    24   ar
    50    23    26   ar
    51    24    28   ar
    52    25    31    1
    53    26    30   ar
    54    26    32    1
    55    27    33    2
    56    27    68    1
    57    28    38   ar
    58    28    40    1
    59    29    34    1
    60    29    35    1
    61    29    37    1
    62    29    69    1
    63    30    36    1
    64    30    38   ar
    65    31    33    1
    66    32    35    1
    67    32    70    1
    68    32    71    1
    69    33    42    1
    70    34    41    1
    71    34    45    1
    72    34    46    1
    73    35    43    2
    74    36    37    1
    75    36    72    1
    76    37    73    1
    77    37    74    1
    78    38    75    1
    79    39    47    1
    80    40    48    1
    81    40    49    1
    82    41    44    1
    83    41    76    1
    84    41    77    1
    85    42    50    1
    86    42    51    1
    87    43    44    1
    88    43    79    1
    89    44    80    1
    90    44    81    1
    91    45    84    1
    92    45    85    1
    93    45    86    1
    94    46    82    1
    95    46    83    1
    96    46    87    1
    97    47    88    1
    98    47    89    1
    99    47    90    1
   100    48    91    1
   101    48    92    1
   102    48    96    1
   103    49    93    1
   104    49    94    1
   105    49    95    1
   106    50    97    1
   107    50    98    1
   108    50   101    1
   109    51    99    1
   110    51   100    1
   111    51   102    1
