@<TRIPOS>MOLECULE
IMPHY009385
 32 33 0 0 0
SMALL
GASTEIGER

@<TRIPOS>ATOM
      1 O           2.0000    0.2500    0.0000 O.2     1  UNL1       -0.4944
      2 O           2.8660    1.7500    0.0000 O.2     1  UNL1       -0.2872
      3 C           2.8660   -1.2500    0.0000 C.ar    1  UNL1        0.0168
      4 C           2.8660   -0.2500    0.0000 C.2     1  UNL1        0.1308
      5 C           4.5981    1.7500    0.0000 C.ar    1  UNL1        0.0218
      6 C           3.7320    0.2500    0.0000 C.2     1  UNL1        0.0279
      7 C           3.7320    1.2500    0.0000 C.2     1  UNL1        0.1895
      8 C           2.0000   -1.7500    0.0000 C.ar    1  UNL1       -0.0511
      9 C           3.7320   -1.7500    0.0000 C.ar    1  UNL1       -0.0511
     10 C           5.4641    1.2500    0.0000 C.ar    1  UNL1       -0.0509
     11 C           4.5981    2.7500    0.0000 C.ar    1  UNL1       -0.0509
     12 C           2.0000   -2.7500    0.0000 C.ar    1  UNL1       -0.0611
     13 C           3.7320   -2.7500    0.0000 C.ar    1  UNL1       -0.0611
     14 C           2.8660   -3.2500    0.0000 C.ar    1  UNL1       -0.0617
     15 C           6.3301    1.7500    0.0000 C.ar    1  UNL1       -0.0611
     16 C           5.4641    3.2500    0.0000 C.ar    1  UNL1       -0.0611
     17 C           6.3301    2.7500    0.0000 C.ar    1  UNL1       -0.0617
     18 C           2.0000    1.2500    0.0000 C.3     1  UNL1        0.0788
     19 H           4.2690   -0.0600    0.0000 H       1  UNL1        0.0693
     20 H           1.4631   -1.4400    0.0000 H       1  UNL1        0.0625
     21 H           4.2690   -1.4400    0.0000 H       1  UNL1        0.0625
     22 H           5.4641    0.6300    0.0000 H       1  UNL1        0.0625
     23 H           4.0611    3.0600    0.0000 H       1  UNL1        0.0625
     24 H           1.4631   -3.0600    0.0000 H       1  UNL1        0.0618
     25 H           4.2690   -3.0600    0.0000 H       1  UNL1        0.0618
     26 H           2.8660   -3.8700    0.0000 H       1  UNL1        0.0618
     27 H           6.8671    1.4400    0.0000 H       1  UNL1        0.0618
     28 H           5.4641    3.8700    0.0000 H       1  UNL1        0.0618
     29 H           6.8671    3.0600    0.0000 H       1  UNL1        0.0618
     30 H           2.6200    1.2500    0.0000 H       1  UNL1        0.0660
     31 H           2.0000    1.8700    0.0000 H       1  UNL1        0.0660
     32 H           1.3800    1.2500    0.0000 H       1  UNL1        0.0660
@<TRIPOS>BOND
     1     1     4    1
     2     1    18    1
     3     2     7    2
     4     3     4    1
     5     3     8   ar
     6     3     9   ar
     7     4     6    2
     8     5     7    1
     9     5    10   ar
    10     5    11   ar
    11     6     7    1
    12     6    19    1
    13     8    12   ar
    14     8    20    1
    15     9    13   ar
    16     9    21    1
    17    10    15   ar
    18    10    22    1
    19    11    16   ar
    20    11    23    1
    21    12    14   ar
    22    12    24    1
    23    13    14   ar
    24    13    25    1
    25    14    26    1
    26    15    17   ar
    27    15    27    1
    28    16    17   ar
    29    16    28    1
    30    17    29    1
    31    18    30    1
    32    18    31    1
    33    18    32    1
