@<TRIPOS>MOLECULE
IMPHY000241
 79 83 0 0 0
SMALL
GASTEIGER

@<TRIPOS>ATOM
      1 O           9.1469   -2.1164    0.0000 O.3     1  UNL1       -0.3884
      2 O           7.3810   -3.1542    0.0000 O.3     1  UNL1       -0.3889
      3 O           5.5755    0.9722    0.0000 O.3     1  UNL1       -0.3911
      4 O           8.2591    2.4151    0.0000 O.3     1  UNL1       -0.4606
      5 O           3.7320   -2.1372    0.0000 O.3     1  UNL1       -0.4605
      6 O           5.5463   -3.9151    0.0000 O.2     1  UNL1       -0.3003
      7 O          10.3848    3.7884    0.0000 O.2     1  UNL1       -0.4708
      8 O           6.5270    2.4151    0.0000 O.2     1  UNL1       -0.2512
      9 O           2.8718   -0.6339    0.0000 O.2     1  UNL1       -0.2512
     10 C           6.4831   -0.5917    0.0000 C.3     1  UNL1        0.0041
     11 C           7.3931   -0.0849    0.0000 C.3     1  UNL1       -0.0180
     12 C           8.2591   -0.5849    0.0000 C.3     1  UNL1        0.0214
     13 C           6.4750   -1.6333    0.0000 C.3     1  UNL1        0.0107
     14 C           9.1251    0.9151    0.0000 C.3     1  UNL1        0.0336
     15 C           8.2752   -1.6264    0.0000 C.3     1  UNL1        0.0906
     16 C           7.3771   -2.1542    0.0000 C.3     1  UNL1        0.0863
     17 C           9.1251   -0.0849    0.0000 C.2     1  UNL1       -0.0547
     18 C           7.3931    0.9151    0.0000 C.3     1  UNL1       -0.0105
     19 C           5.5396   -2.1831    0.0000 C.3     1  UNL1        0.0659
     20 C           5.5562   -0.0277    0.0000 C.3     1  UNL1        0.0646
     21 C           8.2591    1.4151    0.0000 C.3     1  UNL1        0.1129
     22 C           4.6000   -1.6406    0.0000 C.3     1  UNL1        0.1175
     23 C          10.0713    1.2198    0.0000 C.3     1  UNL1        0.0030
     24 C           6.4908    0.4082    0.0000 C.3     1  UNL1       -0.0566
     25 C           4.6084   -0.5556    0.0000 C.3     1  UNL1        0.0119
     26 C           9.1251   -1.0849    0.0000 C.3     1  UNL1       -0.0531
     27 C          10.0713   -0.3896    0.0000 C.2     1  UNL1       -0.0829
     28 C          10.6550    0.4151    0.0000 C.3     1  UNL1       -0.0266
     29 C           9.1251    1.9151    0.0000 C.3     1  UNL1       -0.0519
     30 C           6.0430   -3.0472    0.0000 C.3     1  UNL1       -0.0493
     31 C           5.0430   -3.0510    0.0000 C.2     1  UNL1        0.1300
     32 C          10.3820    2.1704    0.0000 C.ar    1  UNL1       -0.0054
     33 C          11.3336    2.4777    0.0000 C.ar    1  UNL1       -0.0204
     34 C           9.7956    2.9804    0.0000 C.ar    1  UNL1        0.0951
     35 C           7.3931    2.9151    0.0000 C.2     1  UNL1        0.3042
     36 C           2.8680   -1.6339    0.0000 C.2     1  UNL1        0.3042
     37 C          11.3353    3.4777    0.0000 C.ar    1  UNL1        0.0920
     38 C           7.3931    3.9151    0.0000 C.3     1  UNL1        0.0332
     39 C           2.0000   -2.1306    0.0000 C.3     1  UNL1        0.0332
     40 H           8.1292    0.3401    0.0000 H       1  UNL1        0.0317
     41 H           6.4783   -2.4833    0.0000 H       1  UNL1        0.0343
     42 H           8.2811   -2.2464    0.0000 H       1  UNL1        0.0628
     43 H           7.9158   -2.4610    0.0000 H       1  UNL1        0.0622
     44 H           7.1810    1.4977    0.0000 H       1  UNL1        0.0304
     45 H           6.7825    0.8074    0.0000 H       1  UNL1        0.0304
     46 H           6.0996    0.2709    0.0000 H       1  UNL1        0.0600
     47 H           7.7222    1.7251    0.0000 H       1  UNL1        0.0743
     48 H           4.0648   -1.3275    0.0000 H       1  UNL1        0.0744
     49 H          10.6838    1.3160    0.0000 H       1  UNL1        0.0362
     50 H           7.1108    0.4034    0.0000 H       1  UNL1        0.0236
     51 H           6.4956    1.0282    0.0000 H       1  UNL1        0.0236
     52 H           5.8708    0.4130    0.0000 H       1  UNL1        0.0236
     53 H           4.4038    0.0297    0.0000 H       1  UNL1        0.0326
     54 H           3.9967   -0.6570    0.0000 H       1  UNL1        0.0326
     55 H           8.8151   -1.6218    0.0000 H       1  UNL1        0.0239
     56 H           9.6621   -1.3949    0.0000 H       1  UNL1        0.0239
     57 H           9.4351   -0.5480    0.0000 H       1  UNL1        0.0239
     58 H          10.2640   -0.9790    0.0000 H       1  UNL1        0.0572
     59 H          11.1158    0.0004    0.0000 H       1  UNL1        0.0314
     60 H          11.1158    0.8298    0.0000 H       1  UNL1        0.0314
     61 H           9.7451    1.9151    0.0000 H       1  UNL1        0.0239
     62 H           9.1251    2.5351    0.0000 H       1  UNL1        0.0239
     63 H           8.5051    1.9151    0.0000 H       1  UNL1        0.0239
     64 H           5.5072   -3.3592    0.0000 H       1  UNL1        0.0240
     65 H           6.3550   -3.5829    0.0000 H       1  UNL1        0.0240
     66 H           6.5787   -2.7351    0.0000 H       1  UNL1        0.0240
     67 H           4.4230   -3.0534    0.0000 H       1  UNL1        0.1033
     68 H           9.1541   -2.7363    0.0000 H       1  UNL1        0.2099
     69 H           7.9191   -3.4621    0.0000 H       1  UNL1        0.2099
     70 H           5.0446    1.2924    0.0000 H       1  UNL1        0.2098
     71 H          11.8346    2.1124    0.0000 H       1  UNL1        0.0652
     72 H           9.1756    2.9815    0.0000 H       1  UNL1        0.1032
     73 H          11.8375    3.8413    0.0000 H       1  UNL1        0.1029
     74 H           8.0131    3.9151    0.0000 H       1  UNL1        0.0342
     75 H           7.3931    4.5351    0.0000 H       1  UNL1        0.0342
     76 H           6.7731    3.9151    0.0000 H       1  UNL1        0.0342
     77 H           1.6921   -1.5924    0.0000 H       1  UNL1        0.0342
     78 H           1.4619   -2.4385    0.0000 H       1  UNL1        0.0342
     79 H           2.3079   -2.6687    0.0000 H       1  UNL1        0.0342
@<TRIPOS>BOND
     1    15     1    1
     2     1    68    1
     3    16     2    1
     4     2    69    1
     5    20     3    1
     6     3    70    1
     7    21     4    1
     8     4    35    1
     9    22     5    1
    10     5    36    1
    11     6    31    2
    12     7    34   ar
    13     7    37   ar
    14     8    35    2
    15     9    36    2
    16    10    11    1
    17    10    13    1
    18    10    20    1
    19    10    24    1
    20    11    12    1
    21    11    18    1
    22    11    40    1
    23    12    15    1
    24    12    17    1
    25    12    26    1
    26    13    16    1
    27    13    19    1
    28    13    41    1
    29    14    17    1
    30    14    21    1
    31    14    23    1
    32    14    29    1
    33    15    16    1
    34    15    42    1
    35    16    43    1
    36    17    27    2
    37    18    21    1
    38    18    44    1
    39    18    45    1
    40    19    22    1
    41    19    30    1
    42    19    31    1
    43    20    25    1
    44    20    46    1
    45    21    47    1
    46    22    25    1
    47    22    48    1
    48    23    28    1
    49    23    32    1
    50    23    49    1
    51    24    50    1
    52    24    51    1
    53    24    52    1
    54    25    53    1
    55    25    54    1
    56    26    55    1
    57    26    56    1
    58    26    57    1
    59    27    28    1
    60    27    58    1
    61    28    59    1
    62    28    60    1
    63    29    61    1
    64    29    62    1
    65    29    63    1
    66    30    64    1
    67    30    65    1
    68    30    66    1
    69    31    67    1
    70    32    33   ar
    71    32    34   ar
    72    33    37   ar
    73    33    71    1
    74    34    72    1
    75    35    38    1
    76    36    39    1
    77    37    73    1
    78    38    74    1
    79    38    75    1
    80    38    76    1
    81    39    77    1
    82    39    78    1
    83    39    79    1
