@<TRIPOS>MOLECULE
IMPHY014642
 43 42 0 0 0
SMALL
GASTEIGER

@<TRIPOS>ATOM
      1 CL          0.0000    3.8415    0.0000 Cl      1  UNL1       -0.1454
      2 CL          5.2972    0.0000    0.0000 Cl      2  UNL2       -0.1454
      3 C           5.3686    5.0695    0.0000 C.3     3  UNL3       -0.0128
      4 C           4.5026    4.5695    0.0000 C.3     3  UNL3       -0.0285
      5 C           5.3686    6.0695    0.0000 C.3     3  UNL3       -0.0133
      6 C           6.2626    6.6041    0.0000 C.3     3  UNL3       -0.0423
      7 C           3.6366    5.0695    0.0000 C.3     3  UNL3       -0.0309
      8 C           4.5026    3.5695    0.0000 C.3     3  UNL3       -0.0431
      9 C           4.5026    6.5695    0.0000 C.2     3  UNL3       -0.0729
     10 C           6.2626    4.5348    0.0000 C.2     3  UNL3       -0.0811
     11 C           7.1687    6.0903    0.0000 C.3     3  UNL3       -0.0314
     12 C           3.6366    6.0695    0.0000 C.2     3  UNL3       -0.0845
     13 C           7.1687    5.0486    0.0000 C.2     3  UNL3       -0.0762
     14 C           3.6366    3.0695    0.0000 C.3     3  UNL3       -0.0624
     15 C           5.3686    3.0695    0.0000 C.3     3  UNL3       -0.0624
     16 C           4.5026    7.5695    0.0000 C.3     3  UNL3       -0.0435
     17 C           8.0328    4.5453    0.0000 C.3     3  UNL3       -0.0438
     18 H           6.1080    5.4888    0.0000 H       3  UNL3        0.0352
     19 H           5.0396    4.2595    0.0000 H       3  UNL3        0.0312
     20 H           5.3621    6.9194    0.0000 H       3  UNL3        0.0351
     21 H           6.6562    7.0831    0.0000 H       3  UNL3        0.0274
     22 H           5.8580    7.0739    0.0000 H       3  UNL3        0.0274
     23 H           3.0260    5.1771    0.0000 H       3  UNL3        0.0310
     24 H           3.4246    4.4868    0.0000 H       3  UNL3        0.0310
     25 H           3.9657    3.8795    0.0000 H       3  UNL3        0.0298
     26 H           6.2554    3.9148    0.0000 H       3  UNL3        0.0575
     27 H           7.7795    5.9842    0.0000 H       3  UNL3        0.0310
     28 H           7.3777    6.6740    0.0000 H       3  UNL3        0.0310
     29 H           3.0997    6.3795    0.0000 H       3  UNL3        0.0572
     30 H           3.3266    3.6064    0.0000 H       3  UNL3        0.0232
     31 H           3.0997    2.7595    0.0000 H       3  UNL3        0.0232
     32 H           3.9466    2.5325    0.0000 H       3  UNL3        0.0232
     33 H           5.0586    2.5325    0.0000 H       3  UNL3        0.0232
     34 H           5.9056    2.7595    0.0000 H       3  UNL3        0.0232
     35 H           5.6786    3.6064    0.0000 H       3  UNL3        0.0232
     36 H           5.1226    7.5695    0.0000 H       3  UNL3        0.0274
     37 H           4.5026    8.1895    0.0000 H       3  UNL3        0.0274
     38 H           3.8826    7.5695    0.0000 H       3  UNL3        0.0274
     39 H           7.7207    4.0096    0.0000 H       3  UNL3        0.0274
     40 H           8.5685    4.2332    0.0000 H       3  UNL3        0.0274
     41 H           8.3448    5.0810    0.0000 H       3  UNL3        0.0274
     42 H           1.0000    3.8415    0.0000 H       1  UNL1        0.1454
     43 H           6.2972    0.0000    0.0000 H       2  UNL2        0.1454
@<TRIPOS>BOND
     1     1    42    1
     2     2    43    1
     3     3     4    1
     4     3     5    1
     5     3    10    1
     6     3    18    1
     7     4     7    1
     8     4     8    1
     9     4    19    1
    10     5     6    1
    11     5     9    1
    12     5    20    1
    13     6    11    1
    14     6    21    1
    15     6    22    1
    16     7    12    1
    17     7    23    1
    18     7    24    1
    19     8    14    1
    20     8    15    1
    21     8    25    1
    22     9    12    2
    23     9    16    1
    24    10    13    2
    25    10    26    1
    26    11    13    1
    27    11    27    1
    28    11    28    1
    29    12    29    1
    30    13    17    1
    31    14    30    1
    32    14    31    1
    33    14    32    1
    34    15    33    1
    35    15    34    1
    36    15    35    1
    37    16    36    1
    38    16    37    1
    39    16    38    1
    40    17    39    1
    41    17    40    1
    42    17    41    1
