@<TRIPOS>MOLECULE
IMPHY009152
 33 34 0 0 0
SMALL
GASTEIGER

@<TRIPOS>ATOM
      1 O           2.8660    2.2500    0.0000 O.2     1  UNL1       -0.2921
      2 C           2.8660   -0.7500    0.0000 C.3     1  UNL1       -0.0125
      3 C           2.8660   -1.7500    0.0000 C.3     1  UNL1       -0.0399
      4 C           2.0000   -0.2500    0.0000 C.3     1  UNL1       -0.0389
      5 C           3.7320   -0.2500    0.0000 C.ar    1  UNL1       -0.0333
      6 C           2.0000    0.7500    0.0000 C.3     1  UNL1        0.0110
      7 C           3.7320    0.7500    0.0000 C.ar    1  UNL1        0.0209
      8 C           2.8660    1.2500    0.0000 C.2     1  UNL1        0.1635
      9 C           2.0000   -2.2500    0.0000 C.3     1  UNL1       -0.0621
     10 C           3.7320   -2.2500    0.0000 C.3     1  UNL1       -0.0621
     11 C           4.6260   -0.7847    0.0000 C.ar    1  UNL1       -0.0547
     12 C           4.6260    1.2847    0.0000 C.ar    1  UNL1       -0.0507
     13 C           5.5321   -0.2708    0.0000 C.ar    1  UNL1       -0.0501
     14 C           5.5321    0.7708    0.0000 C.ar    1  UNL1       -0.0582
     15 C           6.3961   -0.7742    0.0000 C.3     1  UNL1       -0.0397
     16 H           2.1299   -1.1750    0.0000 H       1  UNL1        0.0352
     17 H           2.8660   -2.3700    0.0000 H       1  UNL1        0.0301
     18 H           1.3894   -0.1423    0.0000 H       1  UNL1        0.0275
     19 H           1.7880   -0.8326    0.0000 H       1  UNL1        0.0275
     20 H           1.7880    1.3326    0.0000 H       1  UNL1        0.0345
     21 H           1.3894    0.6423    0.0000 H       1  UNL1        0.0345
     22 H           1.6900   -1.7131    0.0000 H       1  UNL1        0.0233
     23 H           1.4631   -2.5600    0.0000 H       1  UNL1        0.0233
     24 H           2.3100   -2.7869    0.0000 H       1  UNL1        0.0233
     25 H           3.4220   -2.7869    0.0000 H       1  UNL1        0.0233
     26 H           4.2690   -2.5600    0.0000 H       1  UNL1        0.0233
     27 H           4.0420   -1.7131    0.0000 H       1  UNL1        0.0233
     28 H           4.6188   -1.4046    0.0000 H       1  UNL1        0.0623
     29 H           4.6188    1.9046    0.0000 H       1  UNL1        0.0625
     30 H           6.0678    1.0829    0.0000 H       1  UNL1        0.0620
     31 H           6.0841   -1.3099    0.0000 H       1  UNL1        0.0278
     32 H           6.9319   -1.0862    0.0000 H       1  UNL1        0.0278
     33 H           6.7082   -0.2384    0.0000 H       1  UNL1        0.0278
@<TRIPOS>BOND
     1     1     8    2
     2     2     3    1
     3     2     4    1
     4     2     5    1
     5     2    16    1
     6     3     9    1
     7     3    10    1
     8     3    17    1
     9     4     6    1
    10     4    18    1
    11     4    19    1
    12     5     7   ar
    13     5    11   ar
    14     6     8    1
    15     6    20    1
    16     6    21    1
    17     7     8    1
    18     7    12   ar
    19     9    22    1
    20     9    23    1
    21     9    24    1
    22    10    25    1
    23    10    26    1
    24    10    27    1
    25    11    13   ar
    26    11    28    1
    27    12    14   ar
    28    12    29    1
    29    13    14   ar
    30    13    15    1
    31    14    30    1
    32    15    31    1
    33    15    32    1
    34    15    33    1
