@<TRIPOS>MOLECULE
IMPHY017323
 23 22 0 0 0
SMALL
GASTEIGER

@<TRIPOS>ATOM
      1 O           3.7320    0.2500    0.0000 O.3     1  UNL1       -0.4649
      2 O           8.0622   -0.2500    0.0000 O.3     1  UNL1       -0.4679
      3 O           4.5981   -1.2500    0.0000 O.2     1  UNL1       -0.2508
      4 O           7.1962    1.2500    0.0000 O.2     1  UNL1       -0.2508
      5 C           5.4641    0.2500    0.0000 C.3     1  UNL1        0.0550
      6 C           6.3301   -0.2500    0.0000 C.3     1  UNL1        0.0550
      7 C           4.5981   -0.2500    0.0000 C.2     1  UNL1        0.3076
      8 C           7.1962    0.2500    0.0000 C.2     1  UNL1        0.3073
      9 C           2.8660   -0.2500    0.0000 C.3     1  UNL1        0.0896
     10 C           2.0000    0.2500    0.0000 C.3     1  UNL1       -0.0306
     11 C           8.9282    0.2500    0.0000 C.3     1  UNL1        0.0817
     12 H           5.8626    0.7249    0.0000 H       1  UNL1        0.0383
     13 H           5.0656    0.7249    0.0000 H       1  UNL1        0.0383
     14 H           5.9316   -0.7249    0.0000 H       1  UNL1        0.0383
     15 H           6.7287   -0.7249    0.0000 H       1  UNL1        0.0383
     16 H           2.4675   -0.7249    0.0000 H       1  UNL1        0.0694
     17 H           3.2646   -0.7249    0.0000 H       1  UNL1        0.0694
     18 H           2.3100    0.7869    0.0000 H       1  UNL1        0.0262
     19 H           1.4631    0.5600    0.0000 H       1  UNL1        0.0262
     20 H           1.6900   -0.2869    0.0000 H       1  UNL1        0.0262
     21 H           9.2382   -0.2869    0.0000 H       1  UNL1        0.0661
     22 H           9.4651    0.5600    0.0000 H       1  UNL1        0.0661
     23 H           8.6182    0.7869    0.0000 H       1  UNL1        0.0661
@<TRIPOS>BOND
     1     1     7    1
     2     1     9    1
     3     2     8    1
     4     2    11    1
     5     3     7    2
     6     4     8    2
     7     5     6    1
     8     5     7    1
     9     5    12    1
    10     5    13    1
    11     6     8    1
    12     6    14    1
    13     6    15    1
    14     9    10    1
    15     9    16    1
    16     9    17    1
    17    10    18    1
    18    10    19    1
    19    10    20    1
    20    11    21    1
    21    11    22    1
    22    11    23    1
