@<TRIPOS>MOLECULE
IMPHY014361
 54 55 0 0 0
SMALL
GASTEIGER

@<TRIPOS>ATOM
      1 O           5.1350   -1.2500    0.0000 O.3     1  UNL1       -0.4509
      2 O           3.4030   -0.2500    0.0000 O.3     1  UNL1       -0.3853
      3 O           6.0010    1.2500    0.0000 O.3     1  UNL1       -0.4466
      4 O           5.1350    1.7500    0.0000 O.3     1  UNL1       -0.3868
      5 O           3.4030    2.7500    0.0000 O.3     1  UNL1       -0.3924
      6 O           7.7331    0.2500    0.0000 O.2     1  UNL1       -0.2970
      7 O           3.4030   -1.2500    0.0000 O.2     1  UNL1       -0.2449
      8 O           7.7331    1.2500    0.0000 O.2     1  UNL1       -0.2449
      9 O           6.0010   -4.7500    0.0000 O.3     1  UNL1       -0.5032
     10 O           2.5369   -4.7500    0.0000 O.3     1  UNL1       -0.5032
     11 O           4.2690   -5.7500    0.0000 O.3     1  UNL1       -0.5009
     12 O           5.1350    4.7500    0.0000 O.3     1  UNL1       -0.5032
     13 O           8.5991    4.7500    0.0000 O.3     1  UNL1       -0.5032
     14 O           6.8671    5.7500    0.0000 O.3     1  UNL1       -0.5009
     15 C           5.1350   -0.2500    0.0000 C.3     1  UNL1        0.1748
     16 C           4.2690    0.2500    0.0000 C.3     1  UNL1        0.1239
     17 C           4.2690    1.2500    0.0000 C.3     1  UNL1        0.1076
     18 C           6.0010    0.2500    0.0000 C.3     1  UNL1        0.1968
     19 C           3.4030    1.7500    0.0000 C.3     1  UNL1        0.0727
     20 C           6.8671   -0.2500    0.0000 C.2     1  UNL1        0.1645
     21 C           4.2690   -1.7500    0.0000 C.2     1  UNL1        0.3399
     22 C           6.8671    1.7500    0.0000 C.2     1  UNL1        0.3402
     23 C           4.2690   -2.7500    0.0000 C.ar    1  UNL1        0.0661
     24 C           6.8671    2.7500    0.0000 C.ar    1  UNL1        0.0661
     25 C           3.4030   -3.2500    0.0000 C.ar    1  UNL1       -0.0023
     26 C           5.1350   -3.2500    0.0000 C.ar    1  UNL1       -0.0023
     27 C           7.7331    3.2500    0.0000 C.ar    1  UNL1       -0.0023
     28 C           6.0010    3.2500    0.0000 C.ar    1  UNL1       -0.0023
     29 C           5.1350   -4.2500    0.0000 C.ar    1  UNL1        0.1628
     30 C           3.4030   -4.2500    0.0000 C.ar    1  UNL1        0.1628
     31 C           4.2690   -4.7500    0.0000 C.ar    1  UNL1        0.2006
     32 C           6.0010    4.2500    0.0000 C.ar    1  UNL1        0.1628
     33 C           7.7331    4.2500    0.0000 C.ar    1  UNL1        0.1628
     34 C           6.8671    4.7500    0.0000 C.ar    1  UNL1        0.2006
     35 H           5.6720   -0.5600    0.0000 H       1  UNL1        0.0803
     36 H           4.2690   -0.3700    0.0000 H       1  UNL1        0.0658
     37 H           4.2690    1.8700    0.0000 H       1  UNL1        0.0643
     38 H           6.5380    0.5600    0.0000 H       1  UNL1        0.0851
     39 H           2.7924    1.8577    0.0000 H       1  UNL1        0.0584
     40 H           3.1909    1.1674    0.0000 H       1  UNL1        0.0584
     41 H           2.8660    0.0600    0.0000 H       1  UNL1        0.2101
     42 H           6.8671   -0.8700    0.0000 H       1  UNL1        0.1067
     43 H           5.1350    2.3700    0.0000 H       1  UNL1        0.2100
     44 H           2.8660    3.0600    0.0000 H       1  UNL1        0.2095
     45 H           2.8660   -2.9400    0.0000 H       1  UNL1        0.0663
     46 H           5.6720   -2.9400    0.0000 H       1  UNL1        0.0663
     47 H           8.2700    2.9400    0.0000 H       1  UNL1        0.0663
     48 H           5.4641    2.9400    0.0000 H       1  UNL1        0.0663
     49 H           6.5380   -4.4400    0.0000 H       1  UNL1        0.2923
     50 H           2.0000   -4.4400    0.0000 H       1  UNL1        0.2923
     51 H           3.7320   -6.0600    0.0000 H       1  UNL1        0.2924
     52 H           5.1350    5.3700    0.0000 H       1  UNL1        0.2923
     53 H           9.1360    4.4400    0.0000 H       1  UNL1        0.2923
     54 H           7.4040    6.0600    0.0000 H       1  UNL1        0.2924
@<TRIPOS>BOND
     1    15     1    1
     2     1    21    1
     3    16     2    1
     4     2    41    1
     5    18     3    1
     6     3    22    1
     7    17     4    1
     8     4    43    1
     9     5    19    1
    10     5    44    1
    11     6    20    2
    12     7    21    2
    13     8    22    2
    14     9    29    1
    15     9    49    1
    16    10    30    1
    17    10    50    1
    18    11    31    1
    19    11    51    1
    20    12    32    1
    21    12    52    1
    22    13    33    1
    23    13    53    1
    24    14    34    1
    25    14    54    1
    26    15    16    1
    27    15    18    1
    28    15    35    1
    29    16    17    1
    30    16    36    1
    31    17    19    1
    32    17    37    1
    33    18    20    1
    34    18    38    1
    35    19    39    1
    36    19    40    1
    37    20    42    1
    38    21    23    1
    39    22    24    1
    40    23    25   ar
    41    23    26   ar
    42    24    27   ar
    43    24    28   ar
    44    25    30   ar
    45    25    45    1
    46    26    29   ar
    47    26    46    1
    48    27    33   ar
    49    27    47    1
    50    28    32   ar
    51    28    48    1
    52    29    31   ar
    53    30    31   ar
    54    32    34   ar
    55    33    34   ar
