@<TRIPOS>MOLECULE
IMPHY017613
 36 36 0 0 0
SMALL
GASTEIGER

@<TRIPOS>ATOM
      1 O           4.5981    1.0000    0.0000 O.3     1  UNL1       -0.4644
      2 O           2.8660    1.0000    0.0000 O.2     1  UNL1       -0.2508
      3 C           5.4641    2.5000    0.0000 C.3     1  UNL1       -0.0098
      4 C           5.4641    3.5000    0.0000 C.3     1  UNL1       -0.0502
      5 C           4.5981    2.0000    0.0000 C.3     1  UNL1        0.0950
      6 C           6.3301    2.0000    0.0000 C.3     1  UNL1       -0.0593
      7 C           6.3301    4.0000    0.0000 C.3     1  UNL1       -0.0649
      8 C           3.7320   -0.5000    0.0000 C.3     1  UNL1        0.0489
      9 C           2.8660   -1.0000    0.0000 C.3     1  UNL1       -0.0176
     10 C           3.7320    0.5000    0.0000 C.2     1  UNL1        0.3074
     11 C           2.8660   -2.0000    0.0000 C.ar    1  UNL1       -0.0468
     12 C           3.7320   -2.5000    0.0000 C.ar    1  UNL1       -0.0586
     13 C           2.0000   -2.5000    0.0000 C.ar    1  UNL1       -0.0586
     14 C           3.7320   -3.5000    0.0000 C.ar    1  UNL1       -0.0615
     15 C           2.0000   -3.5000    0.0000 C.ar    1  UNL1       -0.0615
     16 C           2.8660   -4.0000    0.0000 C.ar    1  UNL1       -0.0617
     17 H           5.4641    1.8800    0.0000 H       1  UNL1        0.0331
     18 H           5.2520    4.0826    0.0000 H       1  UNL1        0.0266
     19 H           4.8535    3.3923    0.0000 H       1  UNL1        0.0266
     20 H           4.3860    2.5826    0.0000 H       1  UNL1        0.0700
     21 H           3.9875    1.8923    0.0000 H       1  UNL1        0.0700
     22 H           6.0201    1.4631    0.0000 H       1  UNL1        0.0233
     23 H           6.8671    1.6900    0.0000 H       1  UNL1        0.0233
     24 H           6.6401    2.5369    0.0000 H       1  UNL1        0.0233
     25 H           6.6401    3.4631    0.0000 H       1  UNL1        0.0230
     26 H           6.8671    4.3100    0.0000 H       1  UNL1        0.0230
     27 H           6.0201    4.5369    0.0000 H       1  UNL1        0.0230
     28 H           3.9441   -1.0826    0.0000 H       1  UNL1        0.0381
     29 H           4.3426   -0.3923    0.0000 H       1  UNL1        0.0381
     30 H           2.6540   -0.4174    0.0000 H       1  UNL1        0.0318
     31 H           2.2554   -1.1077    0.0000 H       1  UNL1        0.0318
     32 H           4.2690   -2.1900    0.0000 H       1  UNL1        0.0620
     33 H           1.4631   -2.1900    0.0000 H       1  UNL1        0.0620
     34 H           4.2690   -3.8100    0.0000 H       1  UNL1        0.0618
     35 H           1.4631   -3.8100    0.0000 H       1  UNL1        0.0618
     36 H           2.8660   -4.6200    0.0000 H       1  UNL1        0.0618
@<TRIPOS>BOND
     1     1     5    1
     2     1    10    1
     3     2    10    2
     4     3     4    1
     5     3     5    1
     6     3     6    1
     7     3    17    1
     8     4     7    1
     9     4    18    1
    10     4    19    1
    11     5    20    1
    12     5    21    1
    13     6    22    1
    14     6    23    1
    15     6    24    1
    16     7    25    1
    17     7    26    1
    18     7    27    1
    19     8     9    1
    20     8    10    1
    21     8    28    1
    22     8    29    1
    23     9    11    1
    24     9    30    1
    25     9    31    1
    26    11    12   ar
    27    11    13   ar
    28    12    14   ar
    29    12    32    1
    30    13    15   ar
    31    13    33    1
    32    14    16   ar
    33    14    34    1
    34    15    16   ar
    35    15    35    1
    36    16    36    1
