@<TRIPOS>MOLECULE
IMPHY002739
 154 162 0 0 0
SMALL
GASTEIGER

@<TRIPOS>ATOM
      1 O          10.6948    3.0909    0.0000 O.3     1  UNL1       -0.3450
      2 O           9.1658    4.3229    0.0000 O.3     1  UNL1       -0.3642
      3 O           9.2718   -5.1532    0.0000 O.3     1  UNL1       -0.3451
      4 O           7.5397   -5.1532    0.0000 O.3     1  UNL1       -0.3405
      5 O          13.3294    6.1903    0.0000 O.3     1  UNL1       -0.3484
      6 O           9.2718   -7.1532    0.0000 O.3     1  UNL1       -0.3378
      7 O           7.5397   -8.1532    0.0000 O.3     1  UNL1       -0.3864
      8 O           5.8076   -7.1532    0.0000 O.3     1  UNL1       -0.3401
      9 O          14.8319    5.3287    0.0000 O.3     1  UNL1       -0.3405
     10 O          10.1378   -5.6532    0.0000 O.3     1  UNL1       -0.3431
     11 O           5.8076   -4.1532    0.0000 O.3     1  UNL1       -0.3924
     12 O          14.3242    7.9253    0.0000 O.3     1  UNL1       -0.3841
     13 O           4.8371   -5.6586    0.0000 O.3     1  UNL1       -0.3405
     14 O          11.0038   -8.1532    0.0000 O.3     1  UNL1       -0.3841
     15 O          16.3242    7.9313    0.0000 O.3     1  UNL1       -0.3864
     16 O          17.3293    6.2022    0.0000 O.3     1  UNL1       -0.3865
     17 O          12.7359   -7.1532    0.0000 O.3     1  UNL1       -0.3864
     18 O           3.8202   -8.0380    0.0000 O.3     1  UNL1       -0.3841
     19 O          12.7359   -5.1532    0.0000 O.3     1  UNL1       -0.3866
     20 O           2.3644   -6.4213    0.0000 O.3     1  UNL1       -0.3864
     21 O          17.3345    4.4702    0.0000 O.3     1  UNL1       -0.3924
     22 O           4.0400   -3.7282    0.0000 O.3     1  UNL1       -0.3924
     23 C           9.3010    1.0437    0.0000 C.3     1  UNL1       -0.0233
     24 C          10.1690    0.5471    0.0000 C.3     1  UNL1       -0.0295
     25 C           9.5065    2.0163    0.0000 C.3     1  UNL1       -0.0015
     26 C          10.1728   -0.4529    0.0000 C.3     1  UNL1       -0.0306
     27 C          10.4948    2.1232    0.0000 C.3     1  UNL1        0.0660
     28 C           9.3087   -0.9563    0.0000 C.3     1  UNL1       -0.0285
     29 C          10.9034    1.2170    0.0000 C.3     1  UNL1       -0.0226
     30 C           8.4369    0.5404    0.0000 C.3     1  UNL1       -0.0467
     31 C           9.1042    2.9189    0.0000 C.3     1  UNL1        0.0158
     32 C           8.4408   -0.4596    0.0000 C.3     1  UNL1       -0.0486
     33 C           9.2967   -1.9978    0.0000 C.3     1  UNL1       -0.0078
     34 C           9.8371    3.5817    0.0000 C.3     1  UNL1        0.1704
     35 C           8.4331    1.5404    0.0000 C.3     1  UNL1       -0.0590
     36 C          11.0848   -0.9563    0.0000 C.3     1  UNL1       -0.0311
     37 C          10.1967   -2.5221    0.0000 C.2     1  UNL1       -0.0648
     38 C           8.3468   -2.5221    0.0000 C.3     1  UNL1       -0.0413
     39 C          11.0968   -1.9978    0.0000 C.2     1  UNL1       -0.0839
     40 C           8.1258    3.1256    0.0000 C.3     1  UNL1       -0.0572
     41 C           8.4326   -1.4945    0.0000 C.3     1  UNL1       -0.0556
     42 C          10.3346    4.4492    0.0000 C.3     1  UNL1        0.0018
     43 C          10.2093   -3.6070    0.0000 C.3     1  UNL1       -0.0047
     44 C           8.3342   -3.6070    0.0000 C.3     1  UNL1       -0.0254
     45 C           9.2718   -4.1532    0.0000 C.3     1  UNL1        0.0655
     46 C          11.3345    4.4522    0.0000 C.3     1  UNL1       -0.0435
     47 C          11.8320    5.3198    0.0000 C.3     1  UNL1       -0.0201
     48 C           8.4057   -5.6532    0.0000 C.3     1  UNL1        0.1886
     49 C          12.8320    5.3227    0.0000 C.3     1  UNL1        0.0533
     50 C          11.3294    6.1843    0.0000 C.3     1  UNL1       -0.0603
     51 C           8.4057   -6.6532    0.0000 C.3     1  UNL1        0.1406
     52 C           7.5397   -7.1532    0.0000 C.3     1  UNL1        0.1148
     53 C           6.6737   -5.6532    0.0000 C.3     1  UNL1        0.1134
     54 C           6.6737   -6.6532    0.0000 C.3     1  UNL1        0.1184
     55 C          14.3294    6.1932    0.0000 C.3     1  UNL1        0.1879
     56 C           5.8076   -5.1532    0.0000 C.3     1  UNL1        0.0730
     57 C          10.1378   -6.6532    0.0000 C.3     1  UNL1        0.1884
     58 C          14.8268    7.0608    0.0000 C.3     1  UNL1        0.1341
     59 C          11.0038   -7.1532    0.0000 C.3     1  UNL1        0.1341
     60 C           4.9416   -6.6532    0.0000 C.3     1  UNL1        0.1884
     61 C          15.8268    7.0638    0.0000 C.3     1  UNL1        0.1141
     62 C          15.8319    5.3317    0.0000 C.3     1  UNL1        0.1130
     63 C          16.3293    6.1992    0.0000 C.3     1  UNL1        0.1119
     64 C          11.8698   -6.6532    0.0000 C.3     1  UNL1        0.1140
     65 C           4.0281   -7.0599    0.0000 C.3     1  UNL1        0.1341
     66 C          11.0038   -5.1532    0.0000 C.3     1  UNL1        0.0873
     67 C          11.8698   -5.6532    0.0000 C.3     1  UNL1        0.1095
     68 C           3.3590   -6.3167    0.0000 C.3     1  UNL1        0.1141
     69 C           3.8590   -5.4507    0.0000 C.3     1  UNL1        0.1131
     70 C          16.3345    4.4672    0.0000 C.3     1  UNL1        0.0730
     71 C          11.0038   -4.1532    0.0000 C.3     1  UNL1       -0.0361
     72 C           3.4522   -4.5372    0.0000 C.3     1  UNL1        0.0730
     73 H          10.9472    0.2053    0.0000 H       1  UNL1        0.0310
     74 H           8.6612    1.9268    0.0000 H       1  UNL1        0.0335
     75 H          10.9040   -0.0194    0.0000 H       1  UNL1        0.0310
     76 H          11.3397    2.2164    0.0000 H       1  UNL1        0.0600
     77 H          10.0432   -1.3841    0.0000 H       1  UNL1        0.0312
     78 H          11.2708    0.7175    0.0000 H       1  UNL1        0.0293
     79 H          11.4387    1.5298    0.0000 H       1  UNL1        0.0293
     80 H           8.2226    1.1222    0.0000 H       1  UNL1        0.0271
     81 H           7.8268    0.4304    0.0000 H       1  UNL1        0.0271
     82 H           8.7144    2.4368    0.0000 H       1  UNL1        0.0354
     83 H           7.8298   -0.3543    0.0000 H       1  UNL1        0.0268
     84 H           8.2310   -1.0430    0.0000 H       1  UNL1        0.0268
     85 H           8.7410    2.0785    0.0000 H       1  UNL1        0.0235
     86 H           7.8949    1.8483    0.0000 H       1  UNL1        0.0235
     87 H           8.1251    1.0022    0.0000 H       1  UNL1        0.0235
     88 H          11.6968   -1.0553    0.0000 H       1  UNL1        0.0310
     89 H          11.2871   -0.3702    0.0000 H       1  UNL1        0.0310
     90 H           8.1445   -1.9360    0.0000 H       1  UNL1        0.0274
     91 H           7.7347   -2.6211    0.0000 H       1  UNL1        0.0274
     92 H          11.6361   -2.3037    0.0000 H       1  UNL1        0.0572
     93 H           8.2539    3.7322    0.0000 H       1  UNL1        0.0234
     94 H           7.5192    3.2538    0.0000 H       1  UNL1        0.0234
     95 H           7.9976    2.5190    0.0000 H       1  UNL1        0.0234
     96 H           8.7446   -0.9588    0.0000 H       1  UNL1        0.0238
     97 H           7.8968   -1.1824    0.0000 H       1  UNL1        0.0238
     98 H           8.1205   -2.0302    0.0000 H       1  UNL1        0.0238
     99 H          10.4404    5.0602    0.0000 H       1  UNL1        0.0317
    100 H           9.7513    4.6596    0.0000 H       1  UNL1        0.0317
    101 H          10.4251   -4.1883    0.0000 H       1  UNL1        0.0335
    102 H          10.8189   -3.4939    0.0000 H       1  UNL1        0.0335
    103 H           7.7246   -3.4939    0.0000 H       1  UNL1        0.0290
    104 H           8.1184   -4.1883    0.0000 H       1  UNL1        0.0290
    105 H           9.8093   -4.4621    0.0000 H       1  UNL1        0.0600
    106 H           9.3556    4.9131    0.0000 H       1  UNL1        0.2128
    107 H          11.2287    3.8413    0.0000 H       1  UNL1        0.0270
    108 H          11.9178    4.2419    0.0000 H       1  UNL1        0.0270
    109 H          11.2120    5.3179    0.0000 H       1  UNL1        0.0320
    110 H           8.4057   -5.0332    0.0000 H       1  UNL1        0.0938
    111 H          12.7261    4.7118    0.0000 H       1  UNL1        0.0563
    112 H          13.4152    5.1124    0.0000 H       1  UNL1        0.0563
    113 H          11.8654    6.4959    0.0000 H       1  UNL1        0.0233
    114 H          11.0178    6.7203    0.0000 H       1  UNL1        0.0233
    115 H          10.7934    5.8727    0.0000 H       1  UNL1        0.0233
    116 H           8.4057   -7.2732    0.0000 H       1  UNL1        0.0675
    117 H           7.0028   -7.4632    0.0000 H       1  UNL1        0.0648
    118 H           6.6737   -5.0332    0.0000 H       1  UNL1        0.0647
    119 H           6.1367   -6.3431    0.0000 H       1  UNL1        0.0651
    120 H          14.0210    5.6554    0.0000 H       1  UNL1        0.0937
    121 H           5.1971   -5.0455    0.0000 H       1  UNL1        0.0584
    122 H           5.5956   -5.7358    0.0000 H       1  UNL1        0.0584
    123 H           9.6008   -6.3431    0.0000 H       1  UNL1        0.0938
    124 H           7.0028   -8.4632    0.0000 H       1  UNL1        0.2100
    125 H          14.2068    7.0589    0.0000 H       1  UNL1        0.0671
    126 H          10.4669   -7.4632    0.0000 H       1  UNL1        0.0671
    127 H           4.9092   -7.2723    0.0000 H       1  UNL1        0.0938
    128 H          15.5152    7.5998    0.0000 H       1  UNL1        0.0648
    129 H          15.5235    4.7938    0.0000 H       1  UNL1        0.0647
    130 H          16.6410    5.6632    0.0000 H       1  UNL1        0.0647
    131 H           5.2707   -3.8432    0.0000 H       1  UNL1        0.2095
    132 H          12.4068   -6.3431    0.0000 H       1  UNL1        0.0648
    133 H           4.5099   -7.4501    0.0000 H       1  UNL1        0.0671
    134 H          10.4669   -4.8431    0.0000 H       1  UNL1        0.0621
    135 H          11.8698   -5.0332    0.0000 H       1  UNL1        0.0646
    136 H          14.6326    8.4632    0.0000 H       1  UNL1        0.2101
    137 H           3.1368   -6.8956    0.0000 H       1  UNL1        0.0648
    138 H           4.2491   -4.9689    0.0000 H       1  UNL1        0.0647
    139 H          15.7526    4.2534    0.0000 H       1  UNL1        0.0584
    140 H          16.4440    3.8569    0.0000 H       1  UNL1        0.0584
    141 H          11.5407   -8.4632    0.0000 H       1  UNL1        0.2101
    142 H          16.9442    7.9331    0.0000 H       1  UNL1        0.2100
    143 H          11.6238   -4.1532    0.0000 H       1  UNL1        0.0255
    144 H          11.0038   -3.5332    0.0000 H       1  UNL1        0.0255
    145 H          10.3838   -4.1532    0.0000 H       1  UNL1        0.0255
    146 H          17.6377    6.7401    0.0000 H       1  UNL1        0.2100
    147 H          13.2728   -6.8432    0.0000 H       1  UNL1        0.2100
    148 H           4.2809   -8.4529    0.0000 H       1  UNL1        0.2101
    149 H           3.0215   -4.0912    0.0000 H       1  UNL1        0.0584
    150 H           2.9382   -4.8839    0.0000 H       1  UNL1        0.0584
    151 H          12.7359   -4.5332    0.0000 H       1  UNL1        0.2100
    152 H           2.0000   -5.9197    0.0000 H       1  UNL1        0.2100
    153 H          17.6461    3.9342    0.0000 H       1  UNL1        0.2095
    154 H           3.7878   -3.1618    0.0000 H       1  UNL1        0.2095
@<TRIPOS>BOND
     1     1    27    1
     2     1    34    1
     3     2    34    1
     4     2   106    1
     5    45     3    1
     6    48     3    1
     7     4    48    1
     8     4    53    1
     9     5    49    1
    10    55     5    1
    11    51     6    1
    12    57     6    1
    13    52     7    1
    14     7   124    1
    15    54     8    1
    16    60     8    1
    17     9    55    1
    18     9    62    1
    19    10    57    1
    20    10    66    1
    21    11    56    1
    22    11   131    1
    23    58    12    1
    24    12   136    1
    25    13    60    1
    26    13    69    1
    27    59    14    1
    28    14   141    1
    29    61    15    1
    30    15   142    1
    31    63    16    1
    32    16   146    1
    33    64    17    1
    34    17   147    1
    35    65    18    1
    36    18   148    1
    37    67    19    1
    38    19   151    1
    39    68    20    1
    40    20   152    1
    41    21    70    1
    42    21   153    1
    43    22    72    1
    44    22   154    1
    45    23    24    1
    46    23    25    1
    47    23    30    1
    48    23    35    1
    49    24    26    1
    50    24    29    1
    51    24    73    1
    52    25    27    1
    53    25    31    1
    54    25    74    1
    55    26    28    1
    56    26    36    1
    57    26    75    1
    58    27    29    1
    59    27    76    1
    60    28    32    1
    61    28    33    1
    62    28    77    1
    63    29    78    1
    64    29    79    1
    65    30    32    1
    66    30    80    1
    67    30    81    1
    68    31    34    1
    69    31    40    1
    70    31    82    1
    71    32    83    1
    72    32    84    1
    73    33    37    1
    74    33    38    1
    75    33    41    1
    76    34    42    1
    77    35    85    1
    78    35    86    1
    79    35    87    1
    80    36    39    1
    81    36    88    1
    82    36    89    1
    83    37    39    2
    84    37    43    1
    85    38    44    1
    86    38    90    1
    87    38    91    1
    88    39    92    1
    89    40    93    1
    90    40    94    1
    91    40    95    1
    92    41    96    1
    93    41    97    1
    94    41    98    1
    95    42    46    1
    96    42    99    1
    97    42   100    1
    98    43    45    1
    99    43   101    1
   100    43   102    1
   101    44    45    1
   102    44   103    1
   103    44   104    1
   104    45   105    1
   105    46    47    1
   106    46   107    1
   107    46   108    1
   108    47    49    1
   109    47    50    1
   110    47   109    1
   111    48    51    1
   112    48   110    1
   113    49   111    1
   114    49   112    1
   115    50   113    1
   116    50   114    1
   117    50   115    1
   118    51    52    1
   119    51   116    1
   120    52    54    1
   121    52   117    1
   122    53    54    1
   123    53    56    1
   124    53   118    1
   125    54   119    1
   126    55    58    1
   127    55   120    1
   128    56   121    1
   129    56   122    1
   130    57    59    1
   131    57   123    1
   132    58    61    1
   133    58   125    1
   134    59    64    1
   135    59   126    1
   136    60    65    1
   137    60   127    1
   138    61    63    1
   139    61   128    1
   140    62    63    1
   141    62    70    1
   142    62   129    1
   143    63   130    1
   144    64    67    1
   145    64   132    1
   146    65    68    1
   147    65   133    1
   148    66    67    1
   149    66    71    1
   150    66   134    1
   151    67   135    1
   152    68    69    1
   153    68   137    1
   154    69    72    1
   155    69   138    1
   156    70   139    1
   157    70   140    1
   158    71   143    1
   159    71   144    1
   160    71   145    1
   161    72   149    1
   162    72   150    1
