@<TRIPOS>MOLECULE
IMPHY012359
 47 48 0 0 0
SMALL
GASTEIGER

@<TRIPOS>ATOM
      1 O           5.1808   -0.0146    0.0000 O.3     1  UNL1       -0.4622
      2 O           3.6857    0.1662    0.0000 O.3     1  UNL1       -0.3752
      3 O           5.5409    1.6796    0.0000 O.2     1  UNL1       -0.2475
      4 O           2.6064    2.3033    0.0000 O.3     1  UNL1       -0.3886
      5 N           7.4190   -2.4826    0.0000 N.3     1  UNL1       -0.2990
      6 C           7.4190   -1.4826    0.0000 C.3     1  UNL1        0.0164
      7 C           6.4680   -1.1736    0.0000 C.3     1  UNL1        0.0101
      8 C           8.3652   -1.1779    0.0000 C.3     1  UNL1       -0.0358
      9 C           5.8802   -1.9826    0.0000 C.3     1  UNL1       -0.0328
     10 C           6.4680   -2.7916    0.0000 C.3     1  UNL1       -0.0004
     11 C           8.3652   -2.7873    0.0000 C.3     1  UNL1       -0.0008
     12 C           8.9488   -1.9826    0.0000 C.3     1  UNL1       -0.0388
     13 C           6.1589   -0.2225    0.0000 C.3     1  UNL1        0.0968
     14 C           3.8936    1.1444    0.0000 C.3     1  UNL1        0.1901
     15 C           4.8718    0.9364    0.0000 C.2     1  UNL1        0.3420
     16 C           4.1015    2.1225    0.0000 C.3     1  UNL1       -0.0048
     17 C           2.9155    1.3523    0.0000 C.3     1  UNL1        0.0918
     18 C           3.3584    2.7916    0.0000 C.3     1  UNL1       -0.0594
     19 C           5.0526    2.4315    0.0000 C.3     1  UNL1       -0.0594
     20 C           2.2463    0.6091    0.0000 C.3     1  UNL1       -0.0357
     21 H           7.4201   -0.6326    0.0000 H       1  UNL1        0.0466
     22 H           5.8556   -1.0766    0.0000 H       1  UNL1        0.0349
     23 H           8.9026   -0.8686    0.0000 H       1  UNL1        0.0281
     24 H           8.1142   -0.6110    0.0000 H       1  UNL1        0.0281
     25 H           5.4194   -1.5678    0.0000 H       1  UNL1        0.0282
     26 H           5.4194   -2.3975    0.0000 H       1  UNL1        0.0282
     27 H           5.9310   -3.1016    0.0000 H       1  UNL1        0.0427
     28 H           6.7201   -3.3580    0.0000 H       1  UNL1        0.0427
     29 H           8.1142   -3.3542    0.0000 H       1  UNL1        0.0427
     30 H           8.9026   -3.0966    0.0000 H       1  UNL1        0.0427
     31 H           9.4097   -2.3973    0.0000 H       1  UNL1        0.0278
     32 H           9.4097   -1.5679    0.0000 H       1  UNL1        0.0278
     33 H           6.7729   -0.1362    0.0000 H       1  UNL1        0.0701
     34 H           6.1806    0.3971    0.0000 H       1  UNL1        0.0701
     35 H           3.5119    1.9309    0.0000 H       1  UNL1        0.0329
     36 H           2.3090    1.4812    0.0000 H       1  UNL1        0.0625
     37 H           3.7732    3.2524    0.0000 H       1  UNL1        0.0233
     38 H           2.8976    3.2065    0.0000 H       1  UNL1        0.0233
     39 H           2.9435    2.3309    0.0000 H       1  UNL1        0.0233
     40 H           5.2442    1.8419    0.0000 H       1  UNL1        0.0233
     41 H           5.6422    2.6231    0.0000 H       1  UNL1        0.0233
     42 H           4.8610    3.0212    0.0000 H       1  UNL1        0.0233
     43 H           1.7856    1.0240    0.0000 H       1  UNL1        0.0255
     44 H           1.8315    0.1484    0.0000 H       1  UNL1        0.0255
     45 H           2.7071    0.1943    0.0000 H       1  UNL1        0.0255
     46 H           3.0960   -0.0254    0.0000 H       1  UNL1        0.2110
     47 H           2.0000    2.4322    0.0000 H       1  UNL1        0.2099
@<TRIPOS>BOND
     1     1    13    1
     2     1    15    1
     3    14     2    1
     4     2    46    1
     5     3    15    2
     6    17     4    1
     7     4    47    1
     8     5     6    1
     9     5    10    1
    10     5    11    1
    11     6     7    1
    12     6     8    1
    13     6    21    1
    14     7     9    1
    15     7    13    1
    16     7    22    1
    17     8    12    1
    18     8    23    1
    19     8    24    1
    20     9    10    1
    21     9    25    1
    22     9    26    1
    23    10    27    1
    24    10    28    1
    25    11    12    1
    26    11    29    1
    27    11    30    1
    28    12    31    1
    29    12    32    1
    30    13    33    1
    31    13    34    1
    32    14    15    1
    33    14    16    1
    34    14    17    1
    35    16    18    1
    36    16    19    1
    37    16    35    1
    38    17    20    1
    39    17    36    1
    40    18    37    1
    41    18    38    1
    42    18    39    1
    43    19    40    1
    44    19    41    1
    45    19    42    1
    46    20    43    1
    47    20    44    1
    48    20    45    1
