@<TRIPOS>MOLECULE
IMPHY007378
 84 87 0 0 0
SMALL
GASTEIGER

@<TRIPOS>ATOM
      1 O          10.3312   -0.5771    0.0000 O.3     1  UNL1       -0.3422
      2 O           8.5991   -0.5771    0.0000 O.3     1  UNL1       -0.3405
      3 O          10.3312   -2.5770    0.0000 O.3     1  UNL1       -0.3841
      4 O           8.5991   -3.5770    0.0000 O.3     1  UNL1       -0.3864
      5 O           6.8671   -2.5770    0.0000 O.3     1  UNL1       -0.3865
      6 O           6.0010   -1.0770    0.0000 O.3     1  UNL1       -0.3460
      7 O           5.1350    0.4229    0.0000 O.3     1  UNL1       -0.3405
      8 O           4.2690   -2.0770    0.0000 O.3     1  UNL1       -0.3841
      9 O           2.5369   -1.0770    0.0000 O.3     1  UNL1       -0.3864
     10 O           2.5369    0.9229    0.0000 O.3     1  UNL1       -0.3865
     11 O           3.4030    2.4230    0.0000 O.3     1  UNL1       -0.3924
     12 C          10.8312    1.2890    0.0000 C.3     1  UNL1       -0.0050
     13 C          10.3312    2.1550    0.0000 C.3     1  UNL1       -0.0288
     14 C          10.3312    0.4229    0.0000 C.3     1  UNL1        0.0732
     15 C           9.3312    2.1550    0.0000 C.3     1  UNL1       -0.0352
     16 C           9.3312    0.4229    0.0000 C.3     1  UNL1       -0.0234
     17 C           8.8312    1.2890    0.0000 C.3     1  UNL1       -0.0471
     18 C          11.8727    1.2729    0.0000 C.3     1  UNL1       -0.0263
     19 C          10.8380    3.0650    0.0000 C.3     1  UNL1       -0.0311
     20 C           8.8312    3.0210    0.0000 C.3     1  UNL1       -0.0436
     21 C          11.1972   -0.0771    0.0000 C.3     1  UNL1       -0.0354
     22 C          12.4004    2.1710    0.0000 C.2     1  UNL1       -0.0762
     23 C          11.8796    3.0730    0.0000 C.2     1  UNL1       -0.0847
     24 C           9.4651   -1.0770    0.0000 C.3     1  UNL1        0.1885
     25 C           7.8312    3.0210    0.0000 C.3     1  UNL1       -0.0624
     26 C           9.3312    3.8870    0.0000 C.3     1  UNL1       -0.0624
     27 C           9.4651   -2.0770    0.0000 C.3     1  UNL1        0.1341
     28 C          13.4004    2.1671    0.0000 C.3     1  UNL1       -0.0438
     29 C           8.5991   -2.5770    0.0000 C.3     1  UNL1        0.1141
     30 C           7.7331   -1.0770    0.0000 C.3     1  UNL1        0.1134
     31 C           7.7331   -2.0770    0.0000 C.3     1  UNL1        0.1119
     32 C           6.8671   -0.5771    0.0000 C.3     1  UNL1        0.0796
     33 C           5.1350   -0.5771    0.0000 C.3     1  UNL1        0.1880
     34 C           4.2690   -1.0770    0.0000 C.3     1  UNL1        0.1341
     35 C           3.4030   -0.5771    0.0000 C.3     1  UNL1        0.1141
     36 C           3.4030    0.4229    0.0000 C.3     1  UNL1        0.1119
     37 C           4.2690    0.9229    0.0000 C.3     1  UNL1        0.1130
     38 C           4.2690    1.9230    0.0000 C.3     1  UNL1        0.0730
     39 H          11.2505    0.5496    0.0000 H       1  UNL1        0.0334
     40 H           9.9005    2.8878    0.0000 H       1  UNL1        0.0310
     41 H           8.7112    2.1550    0.0000 H       1  UNL1        0.0306
     42 H           8.7486    0.2109    0.0000 H       1  UNL1        0.0293
     43 H           9.4388   -0.1876    0.0000 H       1  UNL1        0.0293
     44 H           8.3562    1.6875    0.0000 H       1  UNL1        0.0269
     45 H           8.3562    0.8904    0.0000 H       1  UNL1        0.0269
     46 H          11.7572    0.6638    0.0000 H       1  UNL1        0.0314
     47 H          12.4531    1.0549    0.0000 H       1  UNL1        0.0314
     48 H          10.9394    3.6767    0.0000 H       1  UNL1        0.0310
     49 H          10.2527    3.2696    0.0000 H       1  UNL1        0.0310
     50 H           9.4512    3.0210    0.0000 H       1  UNL1        0.0298
     51 H          10.8872   -0.6140    0.0000 H       1  UNL1        0.0257
     52 H          11.7341   -0.3871    0.0000 H       1  UNL1        0.0257
     53 H          11.5072    0.4599    0.0000 H       1  UNL1        0.0257
     54 H          12.1875    3.6112    0.0000 H       1  UNL1        0.0572
     55 H          10.0021   -1.3870    0.0000 H       1  UNL1        0.0938
     56 H           7.8312    3.6410    0.0000 H       1  UNL1        0.0232
     57 H           7.2112    3.0210    0.0000 H       1  UNL1        0.0232
     58 H           7.8312    2.4010    0.0000 H       1  UNL1        0.0232
     59 H           9.8681    3.5770    0.0000 H       1  UNL1        0.0232
     60 H           9.6412    4.4240    0.0000 H       1  UNL1        0.0232
     61 H           8.7942    4.1970    0.0000 H       1  UNL1        0.0232
     62 H           9.4651   -2.6970    0.0000 H       1  UNL1        0.0671
     63 H          13.3980    1.5471    0.0000 H       1  UNL1        0.0274
     64 H          14.0204    2.1647    0.0000 H       1  UNL1        0.0274
     65 H          13.4028    2.7871    0.0000 H       1  UNL1        0.0274
     66 H           8.0622   -2.8870    0.0000 H       1  UNL1        0.0648
     67 H           7.7331   -0.4571    0.0000 H       1  UNL1        0.0647
     68 H           7.1962   -1.7670    0.0000 H       1  UNL1        0.0647
     69 H           7.2656   -0.1021    0.0000 H       1  UNL1        0.0587
     70 H           6.4685   -0.1021    0.0000 H       1  UNL1        0.0587
     71 H          10.3312   -3.1970    0.0000 H       1  UNL1        0.2101
     72 H           8.0622   -3.8870    0.0000 H       1  UNL1        0.2100
     73 H           6.8671   -3.1970    0.0000 H       1  UNL1        0.2100
     74 H           5.1350   -1.1970    0.0000 H       1  UNL1        0.0937
     75 H           3.7320   -1.3870    0.0000 H       1  UNL1        0.0671
     76 H           2.8660   -0.2671    0.0000 H       1  UNL1        0.0648
     77 H           3.4030    1.0430    0.0000 H       1  UNL1        0.0647
     78 H           4.8059    1.2330    0.0000 H       1  UNL1        0.0647
     79 H           4.8796    1.8153    0.0000 H       1  UNL1        0.0584
     80 H           4.4810    2.5056    0.0000 H       1  UNL1        0.0584
     81 H           3.7320   -2.3870    0.0000 H       1  UNL1        0.2101
     82 H           2.0000   -0.7671    0.0000 H       1  UNL1        0.2100
     83 H           2.0000    0.6129    0.0000 H       1  UNL1        0.2100
     84 H           3.4030    3.0430    0.0000 H       1  UNL1        0.2095
@<TRIPOS>BOND
     1     1    14    1
     2    24     1    1
     3     2    24    1
     4     2    30    1
     5    27     3    1
     6     3    71    1
     7    29     4    1
     8     4    72    1
     9    31     5    1
    10     5    73    1
    11     6    32    1
    12    33     6    1
    13     7    33    1
    14     7    37    1
    15    34     8    1
    16     8    81    1
    17    35     9    1
    18     9    82    1
    19    36    10    1
    20    10    83    1
    21    11    38    1
    22    11    84    1
    23    12    13    1
    24    12    14    1
    25    12    18    1
    26    12    39    1
    27    13    15    1
    28    13    19    1
    29    13    40    1
    30    14    16    1
    31    14    21    1
    32    15    17    1
    33    15    20    1
    34    15    41    1
    35    16    17    1
    36    16    42    1
    37    16    43    1
    38    17    44    1
    39    17    45    1
    40    18    22    1
    41    18    46    1
    42    18    47    1
    43    19    23    1
    44    19    48    1
    45    19    49    1
    46    20    25    1
    47    20    26    1
    48    20    50    1
    49    21    51    1
    50    21    52    1
    51    21    53    1
    52    22    23    2
    53    22    28    1
    54    23    54    1
    55    24    27    1
    56    24    55    1
    57    25    56    1
    58    25    57    1
    59    25    58    1
    60    26    59    1
    61    26    60    1
    62    26    61    1
    63    27    29    1
    64    27    62    1
    65    28    63    1
    66    28    64    1
    67    28    65    1
    68    29    31    1
    69    29    66    1
    70    30    31    1
    71    30    32    1
    72    30    67    1
    73    31    68    1
    74    32    69    1
    75    32    70    1
    76    33    34    1
    77    33    74    1
    78    34    35    1
    79    34    75    1
    80    35    36    1
    81    35    76    1
    82    36    37    1
    83    36    77    1
    84    37    38    1
    85    37    78    1
    86    38    79    1
    87    38    80    1
