@<TRIPOS>MOLECULE
IMPHY015927
 33 33 0 0 0
SMALL
GASTEIGER

@<TRIPOS>ATOM
      1 O           4.2690    0.5000    0.0000 O.2     1  UNL1       -0.2968
      2 O           2.5369   -1.5000    0.0000 O.3     1  UNL1       -0.4773
      3 O           3.4030    0.0000    0.0000 O.2     1  UNL1       -0.2455
      4 C           5.1350   -1.0000    0.0000 C.3     1  UNL1        0.0489
      5 C           6.0010   -1.5000    0.0000 C.3     1  UNL1       -0.0390
      6 C           6.0010   -2.5000    0.0000 C.3     1  UNL1       -0.0487
      7 C           4.2690   -1.5000    0.0000 C.2     1  UNL1        0.0427
      8 C           5.1350   -3.0000    0.0000 C.3     1  UNL1       -0.0339
      9 C           5.1350    0.0000    0.0000 C.2     1  UNL1        0.1409
     10 C           4.2690   -2.5000    0.0000 C.2     1  UNL1       -0.0734
     11 C           6.0010    0.5000    0.0000 C.3     1  UNL1        0.0064
     12 C           6.0010    1.5000    0.0000 C.3     1  UNL1       -0.0466
     13 C           6.8671    2.0000    0.0000 C.3     1  UNL1       -0.0555
     14 C           3.4030   -1.0000    0.0000 C.2     1  UNL1        0.3331
     15 C           6.8671    3.0000    0.0000 C.3     1  UNL1       -0.0653
     16 H           5.6720   -0.6900    0.0000 H       1  UNL1        0.0428
     17 H           6.6116   -1.6077    0.0000 H       1  UNL1        0.0275
     18 H           6.2131   -0.9174    0.0000 H       1  UNL1        0.0275
     19 H           6.2131   -3.0826    0.0000 H       1  UNL1        0.0269
     20 H           6.6116   -2.3923    0.0000 H       1  UNL1        0.0269
     21 H           4.7365   -3.4750    0.0000 H       1  UNL1        0.0308
     22 H           5.5335   -3.4750    0.0000 H       1  UNL1        0.0308
     23 H           6.2131   -0.0826    0.0000 H       1  UNL1        0.0342
     24 H           6.6116    0.6077    0.0000 H       1  UNL1        0.0342
     25 H           3.7320   -2.8100    0.0000 H       1  UNL1        0.0577
     26 H           5.7890    2.0826    0.0000 H       1  UNL1        0.0269
     27 H           5.3905    1.3923    0.0000 H       1  UNL1        0.0269
     28 H           7.0791    1.4174    0.0000 H       1  UNL1        0.0263
     29 H           7.4776    2.1077    0.0000 H       1  UNL1        0.0263
     30 H           7.4871    3.0000    0.0000 H       1  UNL1        0.0230
     31 H           6.8671    3.6200    0.0000 H       1  UNL1        0.0230
     32 H           6.2471    3.0000    0.0000 H       1  UNL1        0.0230
     33 H           2.0000   -1.1900    0.0000 H       1  UNL1        0.2954
@<TRIPOS>BOND
     1     1     9    2
     2     2    14    1
     3     2    33    1
     4     3    14    2
     5     4     5    1
     6     4     7    1
     7     4     9    1
     8     4    16    1
     9     5     6    1
    10     5    17    1
    11     5    18    1
    12     6     8    1
    13     6    19    1
    14     6    20    1
    15     7    10    2
    16     7    14    1
    17     8    10    1
    18     8    21    1
    19     8    22    1
    20     9    11    1
    21    10    25    1
    22    11    12    1
    23    11    23    1
    24    11    24    1
    25    12    13    1
    26    12    26    1
    27    12    27    1
    28    13    15    1
    29    13    28    1
    30    13    29    1
    31    15    30    1
    32    15    31    1
    33    15    32    1
