@<TRIPOS>MOLECULE
IMPHY008909
 83 88 0 0 0
SMALL
GASTEIGER

@<TRIPOS>ATOM
      1 O          11.3900    1.9789    0.0000 O.3     1  UNL1       -0.3877
      2 O           8.7382    3.5375    0.0000 O.3     1  UNL1       -0.3875
      3 O           6.0010    3.0520    0.0000 O.3     1  UNL1       -0.3479
      4 O           7.4236    0.3775    0.0000 O.2     1  UNL1       -0.3003
      5 O          13.5826   -2.5922    0.0000 O.3     1  UNL1       -0.4571
      6 O           4.2690    3.0520    0.0000 O.3     1  UNL1       -0.3456
      7 O          12.3199   -3.8496    0.0000 O.2     1  UNL1       -0.2456
      8 O           4.2690    0.0520    0.0000 O.3     1  UNL1       -0.3770
      9 O           2.5369    1.0520    0.0000 O.3     1  UNL1       -0.3867
     10 C          11.3862    0.9789    0.0000 C.3     1  UNL1        0.0751
     11 C          10.5221    1.4822    0.0000 C.3     1  UNL1       -0.0077
     12 C          11.3823   -0.0211    0.0000 C.3     1  UNL1        0.0036
     13 C           9.6541    0.9856    0.0000 C.3     1  UNL1       -0.0208
     14 C           8.7461    1.4959    0.0000 C.3     1  UNL1        0.0579
     15 C           8.7421    2.5376    0.0000 C.3     1  UNL1        0.0807
     16 C          12.3274   -0.3295    0.0000 C.3     1  UNL1       -0.0081
     17 C          10.5144   -0.5178    0.0000 C.3     1  UNL1       -0.0442
     18 C           9.6503   -0.0144    0.0000 C.3     1  UNL1       -0.0483
     19 C          12.3336    1.2800    0.0000 C.3     1  UNL1       -0.0226
     20 C          10.5422    2.5237    0.0000 C.3     1  UNL1       -0.0447
     21 C           9.6462    3.0549    0.0000 C.3     1  UNL1       -0.0226
     22 C          12.9141    0.4730    0.0000 C.3     1  UNL1       -0.0432
     23 C           7.8171    0.9354    0.0000 C.3     1  UNL1       -0.0357
     24 C           7.8088    3.0909    0.0000 C.3     1  UNL1        0.0034
     25 C          11.3785   -1.0211    0.0000 C.3     1  UNL1       -0.0564
     26 C           6.8712    1.4670    0.0000 C.3     1  UNL1       -0.0254
     27 C           6.8671    2.5520    0.0000 C.3     1  UNL1        0.0643
     28 C           8.4077    0.5549    0.0000 C.2     1  UNL1        0.1294
     29 C          12.6344   -1.2812    0.0000 C.2     1  UNL1       -0.0222
     30 C          13.5847   -1.5922    0.0000 C.3     1  UNL1        0.1147
     31 C          12.0448   -2.0890    0.0000 C.2     1  UNL1        0.0252
     32 C           5.1350    2.5520    0.0000 C.3     1  UNL1        0.1624
     33 C          12.6309   -2.8992    0.0000 C.2     1  UNL1        0.3323
     34 C           5.1350    1.5520    0.0000 C.3     1  UNL1        0.0272
     35 C           4.2690    1.0520    0.0000 C.3     1  UNL1        0.0911
     36 C           3.4030    2.5520    0.0000 C.3     1  UNL1        0.0871
     37 C           3.4030    1.5520    0.0000 C.3     1  UNL1        0.1073
     38 C           2.5369    3.0520    0.0000 C.3     1  UNL1       -0.0361
     39 C           3.4030   -0.4480    0.0000 C.3     1  UNL1        0.0369
     40 H          11.2631    1.8987    0.0000 H       1  UNL1        0.0332
     41 H           8.9197    0.5577    0.0000 H       1  UNL1        0.0315
     42 H          12.9395   -0.4280    0.0000 H       1  UNL1        0.0353
     43 H          10.1140   -0.9912    0.0000 H       1  UNL1        0.0272
     44 H          10.9111   -0.9942    0.0000 H       1  UNL1        0.0272
     45 H           9.0401    0.0956    0.0000 H       1  UNL1        0.0269
     46 H           9.4360   -0.5962    0.0000 H       1  UNL1        0.0269
     47 H          12.8721    1.5871    0.0000 H       1  UNL1        0.0293
     48 H          12.0847    1.8478    0.0000 H       1  UNL1        0.0293
     49 H          11.1509    2.4058    0.0000 H       1  UNL1        0.0270
     50 H          10.7624    3.1032    0.0000 H       1  UNL1        0.0270
     51 H          10.0489    3.5262    0.0000 H       1  UNL1        0.0293
     52 H           9.2507    3.5324    0.0000 H       1  UNL1        0.0293
     53 H          13.3733    0.0565    0.0000 H       1  UNL1        0.0272
     54 H          13.3765    0.8860    0.0000 H       1  UNL1        0.0272
     55 H           7.4253    0.4549    0.0000 H       1  UNL1        0.0276
     56 H           8.2235    0.4672    0.0000 H       1  UNL1        0.0276
     57 H           8.2116    3.5622    0.0000 H       1  UNL1        0.0318
     58 H           7.4133    3.5684    0.0000 H       1  UNL1        0.0318
     59 H          10.7585   -1.0187    0.0000 H       1  UNL1        0.0236
     60 H          11.3761   -1.6411    0.0000 H       1  UNL1        0.0236
     61 H          11.9985   -1.0235    0.0000 H       1  UNL1        0.0236
     62 H           6.2600    1.5708    0.0000 H       1  UNL1        0.0290
     63 H           6.6644    0.8825    0.0000 H       1  UNL1        0.0290
     64 H           6.8683    3.1720    0.0000 H       1  UNL1        0.0598
     65 H          11.9282    2.2868    0.0000 H       1  UNL1        0.2102
     66 H           8.8080    0.0815    0.0000 H       1  UNL1        0.1033
     67 H           9.2740    3.8496    0.0000 H       1  UNL1        0.2102
     68 H          14.2012   -1.6583    0.0000 H       1  UNL1        0.0746
     69 H          13.7149   -0.9860    0.0000 H       1  UNL1        0.0746
     70 H          11.4248   -2.0876    0.0000 H       1  UNL1        0.0689
     71 H           5.1350    3.1720    0.0000 H       1  UNL1        0.0910
     72 H           5.3471    0.9694    0.0000 H       1  UNL1        0.0340
     73 H           5.7456    1.6597    0.0000 H       1  UNL1        0.0340
     74 H           4.8059    0.7420    0.0000 H       1  UNL1        0.0624
     75 H           3.4030    3.1720    0.0000 H       1  UNL1        0.0621
     76 H           3.4030    0.9320    0.0000 H       1  UNL1        0.0645
     77 H           2.8469    3.5889    0.0000 H       1  UNL1        0.0255
     78 H           2.0000    3.3620    0.0000 H       1  UNL1        0.0255
     79 H           2.2269    2.5151    0.0000 H       1  UNL1        0.0255
     80 H           2.0000    1.3620    0.0000 H       1  UNL1        0.2100
     81 H           3.0930    0.0889    0.0000 H       1  UNL1        0.0524
     82 H           2.8660   -0.7580    0.0000 H       1  UNL1        0.0524
     83 H           3.7130   -0.9849    0.0000 H       1  UNL1        0.0524
@<TRIPOS>BOND
     1    10     1    1
     2     1    65    1
     3    15     2    1
     4     2    67    1
     5    27     3    1
     6    32     3    1
     7     4    28    2
     8     5    30    1
     9     5    33    1
    10     6    32    1
    11     6    36    1
    12     7    33    2
    13    35     8    1
    14     8    39    1
    15    37     9    1
    16     9    80    1
    17    10    11    1
    18    10    12    1
    19    10    19    1
    20    11    13    1
    21    11    20    1
    22    11    40    1
    23    12    16    1
    24    12    17    1
    25    12    25    1
    26    13    14    1
    27    13    18    1
    28    13    41    1
    29    14    15    1
    30    14    23    1
    31    14    28    1
    32    15    21    1
    33    15    24    1
    34    16    22    1
    35    16    29    1
    36    16    42    1
    37    17    18    1
    38    17    43    1
    39    17    44    1
    40    18    45    1
    41    18    46    1
    42    19    22    1
    43    19    47    1
    44    19    48    1
    45    20    21    1
    46    20    49    1
    47    20    50    1
    48    21    51    1
    49    21    52    1
    50    22    53    1
    51    22    54    1
    52    23    26    1
    53    23    55    1
    54    23    56    1
    55    24    27    1
    56    24    57    1
    57    24    58    1
    58    25    59    1
    59    25    60    1
    60    25    61    1
    61    26    27    1
    62    26    62    1
    63    26    63    1
    64    27    64    1
    65    28    66    1
    66    29    30    1
    67    29    31    2
    68    30    68    1
    69    30    69    1
    70    31    33    1
    71    31    70    1
    72    32    34    1
    73    32    71    1
    74    34    35    1
    75    34    72    1
    76    34    73    1
    77    35    37    1
    78    35    74    1
    79    36    37    1
    80    36    38    1
    81    36    75    1
    82    37    76    1
    83    38    77    1
    84    38    78    1
    85    38    79    1
    86    39    81    1
    87    39    82    1
    88    39    83    1
