@<TRIPOS>MOLECULE
IMPHY004885
 40 44 0 0 0
SMALL
GASTEIGER

@<TRIPOS>ATOM
      1 O           2.2314    0.0528    0.0000 O.3     1  UNL1       -0.4811
      2 O           2.0000   -2.4021    0.0000 O.3     1  UNL1       -0.3841
      3 O           2.0000    2.4021    0.0000 O.3     1  UNL1       -0.5033
      4 N           6.1607   -0.9511    0.0000 N.3     1  UNL1       -0.3015
      5 C           3.6897   -0.4755    0.0000 C.3     1  UNL1        0.0480
      6 C           4.5133   -0.9511    0.0000 C.3     1  UNL1        0.0064
      7 C           5.3370   -0.4755    0.0000 C.3     1  UNL1        0.0213
      8 C           2.8660   -0.9511    0.0000 C.3     1  UNL1        0.1399
      9 C           4.2392    0.2219    0.0000 C.3     1  UNL1       -0.0263
     10 C           3.6897    0.4755    0.0000 C.ar    1  UNL1        0.0116
     11 C           5.3370    0.4755    0.0000 C.3     1  UNL1       -0.0110
     12 C           5.5918    0.2219    0.0000 C.3     1  UNL1       -0.0001
     13 C           4.5133    0.9511    0.0000 C.ar    1  UNL1       -0.0383
     14 C           2.8660   -1.9022    0.0000 C.3     1  UNL1        0.1110
     15 C           4.5133   -1.9022    0.0000 C.2     1  UNL1       -0.0799
     16 C           2.8660    0.9511    0.0000 C.ar    1  UNL1        0.1663
     17 C           3.6897   -2.3777    0.0000 C.2     1  UNL1       -0.0559
     18 C           6.8418   -1.6832    0.0000 C.3     1  UNL1       -0.0124
     19 C           4.5133    1.9022    0.0000 C.ar    1  UNL1       -0.0546
     20 C           2.8660    1.9022    0.0000 C.ar    1  UNL1        0.1588
     21 C           3.6897    2.3777    0.0000 C.ar    1  UNL1       -0.0162
     22 H           5.0597   -1.6022    0.0000 H       1  UNL1        0.0368
     23 H           5.6284   -1.2740    0.0000 H       1  UNL1        0.0472
     24 H           2.0496   -1.1875    0.0000 H       1  UNL1        0.0772
     25 H           4.3760    0.8266    0.0000 H       1  UNL1        0.0287
     26 H           3.6795    0.4887    0.0000 H       1  UNL1        0.0287
     27 H           5.9476    0.3679    0.0000 H       1  UNL1        0.0329
     28 H           5.5490    1.0581    0.0000 H       1  UNL1        0.0329
     29 H           6.1840    0.4057    0.0000 H       1  UNL1        0.0427
     30 H           5.4989    0.8349    0.0000 H       1  UNL1        0.0427
     31 H           2.8660   -2.5222    0.0000 H       1  UNL1        0.0675
     32 H           5.0503   -2.2122    0.0000 H       1  UNL1        0.0573
     33 H           3.6897   -2.9977    0.0000 H       1  UNL1        0.0596
     34 H           6.3879   -2.1055    0.0000 H       1  UNL1        0.0391
     35 H           7.2641   -2.1371    0.0000 H       1  UNL1        0.0391
     36 H           7.2957   -1.2609    0.0000 H       1  UNL1        0.0391
     37 H           5.0503    2.2122    0.0000 H       1  UNL1        0.0622
     38 H           3.6897    2.9977    0.0000 H       1  UNL1        0.0655
     39 H           2.0000   -3.0222    0.0000 H       1  UNL1        0.2104
     40 H           2.0000    3.0222    0.0000 H       1  UNL1        0.2923
@<TRIPOS>BOND
     1     1     8    1
     2     1    16    1
     3    14     2    1
     4     2    39    1
     5     3    20    1
     6     3    40    1
     7     4     7    1
     8     4    12    1
     9     4    18    1
    10     5     6    1
    11     5     8    1
    12     5     9    1
    13     5    10    1
    14     6     7    1
    15     6    15    1
    16     6    22    1
    17     7    11    1
    18     7    23    1
    19     8    14    1
    20     8    24    1
    21     9    12    1
    22     9    25    1
    23     9    26    1
    24    10    13   ar
    25    10    16   ar
    26    11    13    1
    27    11    27    1
    28    11    28    1
    29    12    29    1
    30    12    30    1
    31    13    19   ar
    32    14    17    1
    33    14    31    1
    34    15    17    2
    35    15    32    1
    36    16    20   ar
    37    17    33    1
    38    18    34    1
    39    18    35    1
    40    18    36    1
    41    19    21   ar
    42    19    37    1
    43    20    21   ar
    44    21    38    1
