@<TRIPOS>MOLECULE
IMPHY007456
 47 49 0 0 0
SMALL
GASTEIGER

@<TRIPOS>ATOM
      1 O           6.3981   -0.2723    0.0000 O.2     1  UNL1       -0.4507
      2 O           8.1301    1.7277    0.0000 O.3     1  UNL1       -0.4883
      3 O           4.6497    2.7623    0.0000 O.3     1  UNL1       -0.4942
      4 O           2.8680   -0.2964    0.0000 O.3     1  UNL1       -0.4949
      5 O           6.3981    2.7277    0.0000 O.2     1  UNL1       -0.2830
      6 O           8.9962   -2.7723    0.0000 O.3     1  UNL1       -0.4914
      7 O          10.7282   -1.7723    0.0000 O.3     1  UNL1       -0.4915
      8 C           5.5320    1.2277    0.0000 C.ar    1  UNL1        0.1094
      9 C           5.5320    0.2277    0.0000 C.ar    1  UNL1        0.1465
     10 C           7.2641    0.2277    0.0000 C.ar    1  UNL1        0.1809
     11 C           7.2641    1.2277    0.0000 C.ar    1  UNL1        0.2107
     12 C           8.1301   -0.2723    0.0000 C.ar    1  UNL1        0.0247
     13 C           6.3981    1.7277    0.0000 C.ar    1  UNL1        0.2381
     14 C           4.6381    1.7624    0.0000 C.ar    1  UNL1        0.1380
     15 C           4.6381   -0.3069    0.0000 C.ar    1  UNL1        0.0233
     16 C           3.7320    0.2069    0.0000 C.ar    1  UNL1        0.1271
     17 C           3.7320    1.2485    0.0000 C.ar    1  UNL1        0.0227
     18 C           8.1301   -1.2723    0.0000 C.ar    1  UNL1       -0.0055
     19 C           8.9962    0.2277    0.0000 C.ar    1  UNL1       -0.0473
     20 C           8.9962   -1.7723    0.0000 C.ar    1  UNL1        0.1622
     21 C           9.8622   -1.2723    0.0000 C.ar    1  UNL1        0.1615
     22 C           9.8622   -0.2723    0.0000 C.ar    1  UNL1       -0.0156
     23 C           8.1301    2.7277    0.0000 C.3     1  UNL1        0.0791
     24 C           3.7895    3.2723    0.0000 C.3     1  UNL1        0.0788
     25 C           2.0000    0.2002    0.0000 C.3     1  UNL1        0.0788
     26 C           8.1301   -3.2723    0.0000 C.3     1  UNL1        0.0790
     27 C          11.5942   -1.2723    0.0000 C.3     1  UNL1        0.0790
     28 H           4.6453   -0.9269    0.0000 H       1  UNL1        0.0691
     29 H           3.1963    1.5606    0.0000 H       1  UNL1        0.0691
     30 H           7.5932   -1.5823    0.0000 H       1  UNL1        0.0662
     31 H           8.9962    0.8477    0.0000 H       1  UNL1        0.0626
     32 H          10.3991    0.0377    0.0000 H       1  UNL1        0.0655
     33 H           8.7501    2.7277    0.0000 H       1  UNL1        0.0660
     34 H           8.1301    3.3477    0.0000 H       1  UNL1        0.0660
     35 H           7.5101    2.7277    0.0000 H       1  UNL1        0.0660
     36 H           4.1057    3.8056    0.0000 H       1  UNL1        0.0660
     37 H           3.2562    3.5885    0.0000 H       1  UNL1        0.0660
     38 H           3.4733    2.7390    0.0000 H       1  UNL1        0.0660
     39 H           2.3079    0.7383    0.0000 H       1  UNL1        0.0660
     40 H           1.4619    0.5081    0.0000 H       1  UNL1        0.0660
     41 H           1.6921   -0.3379    0.0000 H       1  UNL1        0.0660
     42 H           7.8201   -2.7354    0.0000 H       1  UNL1        0.0660
     43 H           7.5932   -3.5823    0.0000 H       1  UNL1        0.0660
     44 H           8.4401   -3.8092    0.0000 H       1  UNL1        0.0660
     45 H          11.9042   -1.8092    0.0000 H       1  UNL1        0.0660
     46 H          12.1312   -0.9623    0.0000 H       1  UNL1        0.0660
     47 H          11.2842   -0.7354    0.0000 H       1  UNL1        0.0660
@<TRIPOS>BOND
     1     1     9   ar
     2     1    10   ar
     3     2    11    1
     4     2    23    1
     5     3    14    1
     6     3    24    1
     7     4    16    1
     8     4    25    1
     9     5    13    2
    10     6    20    1
    11     6    26    1
    12     7    21    1
    13     7    27    1
    14     8     9   ar
    15     8    13   ar
    16     8    14   ar
    17     9    15   ar
    18    10    11   ar
    19    10    12    1
    20    11    13   ar
    21    12    18   ar
    22    12    19   ar
    23    14    17   ar
    24    15    16   ar
    25    15    28    1
    26    16    17   ar
    27    17    29    1
    28    18    20   ar
    29    18    30    1
    30    19    22   ar
    31    19    31    1
    32    20    21   ar
    33    21    22   ar
    34    22    32    1
    35    23    33    1
    36    23    34    1
    37    23    35    1
    38    24    36    1
    39    24    37    1
    40    24    38    1
    41    25    39    1
    42    25    40    1
    43    25    41    1
    44    26    42    1
    45    26    43    1
    46    26    44    1
    47    27    45    1
    48    27    46    1
    49    27    47    1
