@<TRIPOS>MOLECULE
IMPHY016784
 41 42 0 0 0
SMALL
GASTEIGER

@<TRIPOS>ATOM
      1 O           7.7188   -1.2283    0.0000 O.3     1  UNL1       -0.3888
      2 O           2.0000    0.2992    0.0000 O.2     1  UNL1       -0.4714
      3 C           4.1906    0.7992    0.0000 C.3     1  UNL1       -0.0043
      4 C           4.1906   -0.2008    0.0000 C.3     1  UNL1       -0.0077
      5 C           5.9906   -0.2216    0.0000 C.3     1  UNL1       -0.0121
      6 C           5.0846   -0.7355    0.0000 C.3     1  UNL1       -0.0402
      7 C           5.0846    1.3339    0.0000 C.3     1  UNL1       -0.0432
      8 C           5.9906    0.8200    0.0000 C.3     1  UNL1       -0.0468
      9 C           6.8547   -0.7249    0.0000 C.3     1  UNL1        0.0633
     10 C           4.1906    1.7992    0.0000 C.3     1  UNL1       -0.0554
     11 C           3.4088   -0.8243    0.0000 C.2     1  UNL1       -0.0340
     12 C           3.4088    1.4227    0.0000 C.2     1  UNL1       -0.0426
     13 C           7.3581    0.1392    0.0000 C.3     1  UNL1       -0.0361
     14 C           6.3514   -1.5890    0.0000 C.3     1  UNL1       -0.0361
     15 C           3.6313   -1.7992    0.0000 C.3     1  UNL1       -0.0403
     16 C           2.4339   -0.6018    0.0000 C.2     1  UNL1        0.0908
     17 C           2.4339    1.2002    0.0000 C.2     1  UNL1        0.0882
     18 H           4.2322   -0.8194    0.0000 H       1  UNL1        0.0355
     19 H           6.5282    0.0874    0.0000 H       1  UNL1        0.0328
     20 H           4.6800   -1.2052    0.0000 H       1  UNL1        0.0275
     21 H           5.4782   -1.2145    0.0000 H       1  UNL1        0.0275
     22 H           5.4782    1.8129    0.0000 H       1  UNL1        0.0274
     23 H           4.6800    1.8037    0.0000 H       1  UNL1        0.0274
     24 H           6.6015    0.7139    0.0000 H       1  UNL1        0.0269
     25 H           6.1997    1.4037    0.0000 H       1  UNL1        0.0269
     26 H           4.8106    1.7992    0.0000 H       1  UNL1        0.0238
     27 H           4.1906    2.4192    0.0000 H       1  UNL1        0.0238
     28 H           3.5706    1.7992    0.0000 H       1  UNL1        0.0238
     29 H           3.5468    2.0271    0.0000 H       1  UNL1        0.0608
     30 H           7.8938   -0.1729    0.0000 H       1  UNL1        0.0257
     31 H           7.6702    0.6749    0.0000 H       1  UNL1        0.0257
     32 H           6.8223    0.4512    0.0000 H       1  UNL1        0.0257
     33 H           5.8157   -1.2770    0.0000 H       1  UNL1        0.0257
     34 H           6.0393   -2.1248    0.0000 H       1  UNL1        0.0257
     35 H           6.8872   -1.9011    0.0000 H       1  UNL1        0.0257
     36 H           3.0269   -1.9372    0.0000 H       1  UNL1        0.0275
     37 H           3.7693   -2.4037    0.0000 H       1  UNL1        0.0275
     38 H           4.2358   -1.6612    0.0000 H       1  UNL1        0.0275
     39 H           2.0473   -1.0865    0.0000 H       1  UNL1        0.1029
     40 H           2.0473    1.6849    0.0000 H       1  UNL1        0.1026
     41 H           8.2570   -0.9203    0.0000 H       1  UNL1        0.2101
@<TRIPOS>BOND
     1     1     9    1
     2     1    41    1
     3     2    16    1
     4     2    17    1
     5     3     4    1
     6     3     7    1
     7     3    10    1
     8     3    12    1
     9     4     6    1
    10     4    11    1
    11     4    18    1
    12     5     6    1
    13     5     8    1
    14     5     9    1
    15     5    19    1
    16     6    20    1
    17     6    21    1
    18     7     8    1
    19     7    22    1
    20     7    23    1
    21     8    24    1
    22     8    25    1
    23     9    13    1
    24     9    14    1
    25    10    26    1
    26    10    27    1
    27    10    28    1
    28    11    15    1
    29    11    16    2
    30    12    17    2
    31    12    29    1
    32    13    30    1
    33    13    31    1
    34    13    32    1
    35    14    33    1
    36    14    34    1
    37    14    35    1
    38    15    36    1
    39    15    37    1
    40    15    38    1
    41    16    39    1
    42    17    40    1
