@<TRIPOS>MOLECULE
IMPHY012064
 54 54 0 0 0
SMALL
GASTEIGER

@<TRIPOS>ATOM
      1 O           8.9282   -0.5000    0.0000 O.3     1  UNL1       -0.4609
      2 O           5.4641   -2.5000    0.0000 O.3     1  UNL1       -0.4611
      3 O           7.1962   -0.5000    0.0000 O.2     1  UNL1       -0.2449
      4 O           6.3301   -1.0000    0.0000 O.2     1  UNL1       -0.2449
      5 C           9.7942    1.0000    0.0000 C.3     1  UNL1       -0.0069
      6 C           9.7942    2.0000    0.0000 C.3     1  UNL1       -0.0471
      7 C          10.6603    0.5000    0.0000 C.3     1  UNL1       -0.0500
      8 C          10.6603    2.5000    0.0000 C.3     1  UNL1       -0.0529
      9 C           8.9282    0.5000    0.0000 C.3     1  UNL1        0.0956
     10 C          10.6603    3.5000    0.0000 C.3     1  UNL1       -0.0559
     11 C          11.5263    1.0000    0.0000 C.3     1  UNL1       -0.0649
     12 C          11.5263    4.0000    0.0000 C.3     1  UNL1       -0.0653
     13 C           8.0622   -1.0000    0.0000 C.2     1  UNL1        0.3400
     14 C           8.0622   -2.0000    0.0000 C.ar    1  UNL1        0.0729
     15 C           7.1962   -2.5000    0.0000 C.ar    1  UNL1        0.0729
     16 C           3.7320   -2.5000    0.0000 C.3     1  UNL1       -0.0188
     17 C           8.9282   -2.5000    0.0000 C.ar    1  UNL1       -0.0470
     18 C           2.8660   -2.0000    0.0000 C.3     1  UNL1       -0.0528
     19 C           4.5981   -2.0000    0.0000 C.3     1  UNL1        0.0928
     20 C           6.3301   -2.0000    0.0000 C.2     1  UNL1        0.3400
     21 C           7.1962   -3.5000    0.0000 C.ar    1  UNL1       -0.0470
     22 C           8.9282   -3.5000    0.0000 C.ar    1  UNL1       -0.0609
     23 C           8.0622   -4.0000    0.0000 C.ar    1  UNL1       -0.0609
     24 C           2.0000   -2.5000    0.0000 C.3     1  UNL1       -0.0652
     25 H           9.2573    1.3100    0.0000 H       1  UNL1        0.0333
     26 H           9.5822    2.5826    0.0000 H       1  UNL1        0.0269
     27 H           9.1836    1.8923    0.0000 H       1  UNL1        0.0269
     28 H          10.2617    0.0251    0.0000 H       1  UNL1        0.0266
     29 H          11.0588    0.0251    0.0000 H       1  UNL1        0.0266
     30 H          10.8723    1.9174    0.0000 H       1  UNL1        0.0265
     31 H          11.2708    2.6077    0.0000 H       1  UNL1        0.0265
     32 H           8.7162    1.0826    0.0000 H       1  UNL1        0.0700
     33 H           8.3176    0.3923    0.0000 H       1  UNL1        0.0700
     34 H          10.4482    4.0826    0.0000 H       1  UNL1        0.0263
     35 H          10.0497    3.3923    0.0000 H       1  UNL1        0.0263
     36 H          11.8363    0.4631    0.0000 H       1  UNL1        0.0230
     37 H          12.0632    1.3100    0.0000 H       1  UNL1        0.0230
     38 H          11.2163    1.5369    0.0000 H       1  UNL1        0.0230
     39 H          11.8363    3.4631    0.0000 H       1  UNL1        0.0230
     40 H          12.0632    4.3100    0.0000 H       1  UNL1        0.0230
     41 H          11.2163    4.5369    0.0000 H       1  UNL1        0.0230
     42 H           3.3335   -2.9750    0.0000 H       1  UNL1        0.0298
     43 H           4.1306   -2.9750    0.0000 H       1  UNL1        0.0298
     44 H           3.2646   -1.5250    0.0000 H       1  UNL1        0.0264
     45 H           2.4675   -1.5250    0.0000 H       1  UNL1        0.0264
     46 H           4.9966   -1.5250    0.0000 H       1  UNL1        0.0697
     47 H           4.1996   -1.5250    0.0000 H       1  UNL1        0.0697
     48 H           9.4651   -2.1900    0.0000 H       1  UNL1        0.0626
     49 H           6.6592   -3.8100    0.0000 H       1  UNL1        0.0626
     50 H           9.4651   -3.8100    0.0000 H       1  UNL1        0.0618
     51 H           8.0622   -4.6200    0.0000 H       1  UNL1        0.0618
     52 H           1.6900   -1.9631    0.0000 H       1  UNL1        0.0230
     53 H           1.4631   -2.8100    0.0000 H       1  UNL1        0.0230
     54 H           2.3100   -3.0369    0.0000 H       1  UNL1        0.0230
@<TRIPOS>BOND
     1     1     9    1
     2     1    13    1
     3     2    19    1
     4     2    20    1
     5     3    13    2
     6     4    20    2
     7     5     6    1
     8     5     7    1
     9     5     9    1
    10     5    25    1
    11     6     8    1
    12     6    26    1
    13     6    27    1
    14     7    11    1
    15     7    28    1
    16     7    29    1
    17     8    10    1
    18     8    30    1
    19     8    31    1
    20     9    32    1
    21     9    33    1
    22    10    12    1
    23    10    34    1
    24    10    35    1
    25    11    36    1
    26    11    37    1
    27    11    38    1
    28    12    39    1
    29    12    40    1
    30    12    41    1
    31    13    14    1
    32    14    15   ar
    33    14    17   ar
    34    15    20    1
    35    15    21   ar
    36    16    18    1
    37    16    19    1
    38    16    42    1
    39    16    43    1
    40    17    22   ar
    41    17    48    1
    42    18    24    1
    43    18    44    1
    44    18    45    1
    45    19    46    1
    46    19    47    1
    47    21    23   ar
    48    21    49    1
    49    22    23   ar
    50    22    50    1
    51    23    51    1
    52    24    52    1
    53    24    53    1
    54    24    54    1
