@<TRIPOS>MOLECULE
IMPHY005929
 40 44 0 0 0
SMALL
GASTEIGER

@<TRIPOS>ATOM
      1 O           2.2314    0.0528    0.0000 O.3     1  UNL1       -0.4800
      2 O           5.3794   -2.4021    0.0000 O.3     1  UNL1       -0.3874
      3 O           2.0000    2.4021    0.0000 O.3     1  UNL1       -0.5033
      4 N           6.1606   -0.9511    0.0000 N.3     1  UNL1       -0.3017
      5 C           3.6897   -0.4755    0.0000 C.3     1  UNL1        0.0481
      6 C           4.5133   -0.9511    0.0000 C.3     1  UNL1        0.0180
      7 C           5.3370   -0.4755    0.0000 C.3     1  UNL1        0.0205
      8 C           2.8660   -0.9511    0.0000 C.3     1  UNL1        0.1287
      9 C           4.2392    0.2219    0.0000 C.3     1  UNL1       -0.0263
     10 C           3.6897    0.4755    0.0000 C.ar    1  UNL1        0.0116
     11 C           4.5133   -1.9022    0.0000 C.3     1  UNL1        0.0786
     12 C           5.3370    0.4755    0.0000 C.3     1  UNL1       -0.0112
     13 C           5.5918    0.2219    0.0000 C.3     1  UNL1       -0.0002
     14 C           4.5133    0.9511    0.0000 C.ar    1  UNL1       -0.0383
     15 C           2.8660    0.9511    0.0000 C.ar    1  UNL1        0.1667
     16 C           2.8660   -1.9022    0.0000 C.2     1  UNL1       -0.0447
     17 C           3.6897   -2.3777    0.0000 C.2     1  UNL1       -0.0560
     18 C           6.8418   -1.6832    0.0000 C.3     1  UNL1       -0.0125
     19 C           4.5133    1.9022    0.0000 C.ar    1  UNL1       -0.0546
     20 C           2.8660    1.9022    0.0000 C.ar    1  UNL1        0.1588
     21 C           3.6897    2.3777    0.0000 C.ar    1  UNL1       -0.0162
     22 H           5.0597   -1.6022    0.0000 H       1  UNL1        0.0354
     23 H           5.6284   -1.2740    0.0000 H       1  UNL1        0.0469
     24 H           2.0496   -1.1875    0.0000 H       1  UNL1        0.0787
     25 H           4.3760    0.8266    0.0000 H       1  UNL1        0.0287
     26 H           3.6795    0.4887    0.0000 H       1  UNL1        0.0287
     27 H           4.5133   -2.5222    0.0000 H       1  UNL1        0.0641
     28 H           5.9476    0.3679    0.0000 H       1  UNL1        0.0329
     29 H           5.5490    1.0581    0.0000 H       1  UNL1        0.0329
     30 H           6.1840    0.4057    0.0000 H       1  UNL1        0.0427
     31 H           5.4989    0.8349    0.0000 H       1  UNL1        0.0427
     32 H           2.3291   -2.2122    0.0000 H       1  UNL1        0.0606
     33 H           3.6897   -2.9977    0.0000 H       1  UNL1        0.0596
     34 H           6.3879   -2.1055    0.0000 H       1  UNL1        0.0391
     35 H           7.2641   -2.1371    0.0000 H       1  UNL1        0.0391
     36 H           7.2957   -1.2609    0.0000 H       1  UNL1        0.0391
     37 H           5.0503    2.2122    0.0000 H       1  UNL1        0.0622
     38 H           5.3794   -3.0222    0.0000 H       1  UNL1        0.2102
     39 H           3.6897    2.9977    0.0000 H       1  UNL1        0.0655
     40 H           2.0000    3.0222    0.0000 H       1  UNL1        0.2923
@<TRIPOS>BOND
     1     1     8    1
     2     1    15    1
     3    11     2    1
     4     2    38    1
     5     3    20    1
     6     3    40    1
     7     4     7    1
     8     4    13    1
     9     4    18    1
    10     5     6    1
    11     5     8    1
    12     5     9    1
    13     5    10    1
    14     6     7    1
    15     6    11    1
    16     6    22    1
    17     7    12    1
    18     7    23    1
    19     8    16    1
    20     8    24    1
    21     9    13    1
    22     9    25    1
    23     9    26    1
    24    10    14   ar
    25    10    15   ar
    26    11    17    1
    27    11    27    1
    28    12    14    1
    29    12    28    1
    30    12    29    1
    31    13    30    1
    32    13    31    1
    33    14    19   ar
    34    15    20   ar
    35    16    17    2
    36    16    32    1
    37    17    33    1
    38    18    34    1
    39    18    35    1
    40    18    36    1
    41    19    21   ar
    42    19    37    1
    43    20    21   ar
    44    21    39    1
