@<TRIPOS>MOLECULE
IMPHY017539
 30 29 0 0 0
SMALL
GASTEIGER

@<TRIPOS>ATOM
      1 O           2.8660   -2.1900    0.0000 O.3     1  UNL1       -0.3795
      2 C           4.5981    1.8100    0.0000 C.3     1  UNL1       -0.0137
      3 C           3.7320    1.3100    0.0000 C.2     1  UNL1        0.0039
      4 C           5.4641    1.3100    0.0000 C.3     1  UNL1       -0.0581
      5 C           4.5981    2.8100    0.0000 C.3     1  UNL1       -0.0581
      6 C           2.8660    1.8100    0.0000 C.2     1  UNL1       -0.0641
      7 C           2.0000    1.3100    0.0000 C.3     1  UNL1       -0.0429
      8 C           2.8660    2.8100    0.0000 C.3     1  UNL1       -0.0429
      9 C           3.7320    0.3100    0.0000 C.1     1  UNL1       -0.0679
     10 C           3.7320   -1.6900    0.0000 C.3     1  UNL1        0.1130
     11 C           3.7320   -0.6900    0.0000 C.1     1  UNL1       -0.0663
     12 C           4.5981   -2.1900    0.0000 C.3     1  UNL1       -0.0276
     13 H           4.5981    1.1900    0.0000 H       1  UNL1        0.0350
     14 H           5.1541    0.7731    0.0000 H       1  UNL1        0.0236
     15 H           6.0010    1.0000    0.0000 H       1  UNL1        0.0236
     16 H           5.7741    1.8469    0.0000 H       1  UNL1        0.0236
     17 H           5.2181    2.8100    0.0000 H       1  UNL1        0.0236
     18 H           4.5981    3.4300    0.0000 H       1  UNL1        0.0236
     19 H           3.9781    2.8100    0.0000 H       1  UNL1        0.0236
     20 H           1.6900    1.8469    0.0000 H       1  UNL1        0.0275
     21 H           1.4631    1.0000    0.0000 H       1  UNL1        0.0275
     22 H           2.3100    0.7731    0.0000 H       1  UNL1        0.0275
     23 H           3.4860    2.8100    0.0000 H       1  UNL1        0.0275
     24 H           2.8660    3.4300    0.0000 H       1  UNL1        0.0275
     25 H           2.2460    2.8100    0.0000 H       1  UNL1        0.0275
     26 H           3.7320   -2.3100    0.0000 H       1  UNL1        0.0728
     27 H           4.2881   -2.7269    0.0000 H       1  UNL1        0.0264
     28 H           5.1350   -2.5000    0.0000 H       1  UNL1        0.0264
     29 H           4.9081   -1.6531    0.0000 H       1  UNL1        0.0264
     30 H           2.8660   -2.8100    0.0000 H       1  UNL1        0.2111
@<TRIPOS>BOND
     1     1    10    1
     2     1    30    1
     3     2     3    1
     4     2     4    1
     5     2     5    1
     6     2    13    1
     7     3     6    2
     8     3     9    1
     9     4    14    1
    10     4    15    1
    11     4    16    1
    12     5    17    1
    13     5    18    1
    14     5    19    1
    15     6     7    1
    16     6     8    1
    17     7    20    1
    18     7    21    1
    19     7    22    1
    20     8    23    1
    21     8    24    1
    22     8    25    1
    23     9    11    3
    24    10    11    1
    25    10    12    1
    26    10    26    1
    27    12    27    1
    28    12    28    1
    29    12    29    1
