@<TRIPOS>MOLECULE
IMPHY002837
 41 43 0 0 0
SMALL
GASTEIGER

@<TRIPOS>ATOM
      1 O           3.5836    0.6751    0.0000 O.3     1  UNL1       -0.4601
      2 O           5.3958   -2.1296    0.0000 O.3     1  UNL1       -0.3913
      3 O           8.0321    0.3672    0.0000 O.3     1  UNL1       -0.3912
      4 O           2.0000   -0.1296    0.0000 O.2     1  UNL1       -0.2505
      5 C           6.2619    0.3704    0.0000 C.3     1  UNL1        0.0061
      6 C           5.3958    0.8704    0.0000 C.3     1  UNL1        0.0251
      7 C           4.5298    0.3704    0.0000 C.3     1  UNL1        0.1160
      8 C           4.5298   -0.6296    0.0000 C.3     1  UNL1        0.0353
      9 C           6.2619   -0.6296    0.0000 C.3     1  UNL1       -0.0180
     10 C           5.3958   -1.1296    0.0000 C.3     1  UNL1        0.0628
     11 C           7.1719    0.8772    0.0000 C.3     1  UNL1        0.0616
     12 C           3.5836   -0.9344    0.0000 C.3     1  UNL1        0.0622
     13 C           5.3798    1.9119    0.0000 C.2     1  UNL1       -0.0693
     14 C           7.1799    1.9188    0.0000 C.3     1  UNL1       -0.0226
     15 C           7.1279   -0.1296    0.0000 C.3     1  UNL1       -0.0565
     16 C           6.2778    2.4396    0.0000 C.3     1  UNL1       -0.0292
     17 C           3.0000   -0.1296    0.0000 C.2     1  UNL1        0.3107
     18 C           3.2729   -1.8849    0.0000 C.3     1  UNL1       -0.0518
     19 C           4.5080    2.4018    0.0000 C.2     1  UNL1       -0.0990
     20 H           6.1287    1.3010    0.0000 H       1  UNL1        0.0388
     21 H           4.4399    1.2156    0.0000 H       1  UNL1        0.0744
     22 H           4.4399   -1.4749    0.0000 H       1  UNL1        0.0370
     23 H           6.4739   -1.2122    0.0000 H       1  UNL1        0.0296
     24 H           6.8725   -0.5220    0.0000 H       1  UNL1        0.0296
     25 H           5.9328   -1.4396    0.0000 H       1  UNL1        0.0597
     26 H           7.7118    1.1820    0.0000 H       1  UNL1        0.0599
     27 H           2.9711   -1.0306    0.0000 H       1  UNL1        0.0415
     28 H           7.7899    1.8080    0.0000 H       1  UNL1        0.0293
     29 H           7.3935    2.5009    0.0000 H       1  UNL1        0.0293
     30 H           6.8179   -0.6666    0.0000 H       1  UNL1        0.0236
     31 H           7.6648   -0.4396    0.0000 H       1  UNL1        0.0236
     32 H           7.4379    0.4073    0.0000 H       1  UNL1        0.0236
     33 H           6.6751    2.9156    0.0000 H       1  UNL1        0.0311
     34 H           5.8769    2.9125    0.0000 H       1  UNL1        0.0311
     35 H           2.6836   -1.6923    0.0000 H       1  UNL1        0.0238
     36 H           3.0803   -2.4742    0.0000 H       1  UNL1        0.0238
     37 H           3.8623   -2.0775    0.0000 H       1  UNL1        0.0238
     38 H           5.9328   -2.4396    0.0000 H       1  UNL1        0.2098
     39 H           8.5726    0.6710    0.0000 H       1  UNL1        0.2098
     40 H           4.5009    3.0218    0.0000 H       1  UNL1        0.0535
     41 H           3.9747    2.0856    0.0000 H       1  UNL1        0.0535
@<TRIPOS>BOND
     1     1     7    1
     2     1    17    1
     3    10     2    1
     4     2    38    1
     5    11     3    1
     6     3    39    1
     7     4    17    2
     8     5     6    1
     9     5     9    1
    10     5    11    1
    11     5    15    1
    12     6     7    1
    13     6    13    1
    14     6    20    1
    15     7     8    1
    16     7    21    1
    17     8    10    1
    18     8    12    1
    19     8    22    1
    20     9    10    1
    21     9    23    1
    22     9    24    1
    23    10    25    1
    24    11    14    1
    25    11    26    1
    26    12    17    1
    27    12    18    1
    28    12    27    1
    29    13    16    1
    30    13    19    2
    31    14    16    1
    32    14    28    1
    33    14    29    1
    34    15    30    1
    35    15    31    1
    36    15    32    1
    37    16    33    1
    38    16    34    1
    39    18    35    1
    40    18    36    1
    41    18    37    1
    42    19    40    1
    43    19    41    1
