@<TRIPOS>MOLECULE
IMPHY009844
 75 76 0 0 0
SMALL
GASTEIGER

@<TRIPOS>ATOM
      1 O           6.0290   -2.7889    0.0000 O.3     1  UNL1       -0.4854
      2 O           2.5369   -0.7543    0.0000 O.3     1  UNL1       -0.5062
      3 C           6.9350   -2.2751    0.0000 C.3     1  UNL1        0.1085
      4 C           6.9350   -1.2335    0.0000 C.3     1  UNL1       -0.0091
      5 C           7.9350   -2.2790    0.0000 C.3     1  UNL1       -0.0097
      6 C           6.0290   -0.7196    0.0000 C.3     1  UNL1       -0.0202
      7 C           5.1350   -1.2543    0.0000 C.ar    1  UNL1        0.0011
      8 C           5.1350   -2.2543    0.0000 C.ar    1  UNL1        0.1281
      9 C           7.4317   -3.1430    0.0000 C.3     1  UNL1       -0.0249
     10 C           8.4384   -1.4149    0.0000 C.3     1  UNL1       -0.0309
     11 C           4.2690   -0.7543    0.0000 C.ar    1  UNL1       -0.0021
     12 C           4.2690   -2.7543    0.0000 C.ar    1  UNL1       -0.0021
     13 C           3.4030   -2.2543    0.0000 C.ar    1  UNL1       -0.0024
     14 C           3.4030   -1.2543    0.0000 C.ar    1  UNL1        0.1234
     15 C           9.4383   -1.4187    0.0000 C.2     1  UNL1       -0.0849
     16 C           4.2690    0.2457    0.0000 C.3     1  UNL1       -0.0359
     17 C           4.2690   -3.7543    0.0000 C.3     1  UNL1       -0.0359
     18 C           9.9417   -0.5546    0.0000 C.2     1  UNL1       -0.0762
     19 C           2.5369   -2.7543    0.0000 C.3     1  UNL1       -0.0359
     20 C          10.9417   -0.5585    0.0000 C.3     1  UNL1       -0.0286
     21 C           9.4450    0.3133    0.0000 C.3     1  UNL1       -0.0438
     22 C          11.4450    0.3056    0.0000 C.3     1  UNL1       -0.0308
     23 C          12.4450    0.3018    0.0000 C.2     1  UNL1       -0.0847
     24 C          12.9483    1.1659    0.0000 C.2     1  UNL1       -0.0762
     25 C          13.9483    1.1620    0.0000 C.3     1  UNL1       -0.0286
     26 C          14.4517    2.0261    0.0000 C.3     1  UNL1       -0.0308
     27 C          12.4517    2.0338    0.0000 C.3     1  UNL1       -0.0438
     28 C          15.4516    2.0222    0.0000 C.2     1  UNL1       -0.0850
     29 C          15.9550    2.8863    0.0000 C.2     1  UNL1       -0.0796
     30 C          16.9550    2.8825    0.0000 C.3     1  UNL1       -0.0440
     31 C          15.4583    3.7543    0.0000 C.3     1  UNL1       -0.0440
     32 H           7.5459   -1.3396    0.0000 H       1  UNL1        0.0307
     33 H           7.1441   -0.6498    0.0000 H       1  UNL1        0.0307
     34 H           7.8250   -2.8891    0.0000 H       1  UNL1        0.0306
     35 H           8.5168   -2.4932    0.0000 H       1  UNL1        0.0306
     36 H           6.4226   -0.2406    0.0000 H       1  UNL1        0.0316
     37 H           5.6244   -0.2498    0.0000 H       1  UNL1        0.0316
     38 H           6.8936   -3.4510    0.0000 H       1  UNL1        0.0268
     39 H           7.7396   -3.6812    0.0000 H       1  UNL1        0.0268
     40 H           7.9698   -2.8351    0.0000 H       1  UNL1        0.0268
     41 H           8.5484   -0.8047    0.0000 H       1  UNL1        0.0309
     42 H           7.8566   -1.2006    0.0000 H       1  UNL1        0.0309
     43 H           9.7463   -1.9568    0.0000 H       1  UNL1        0.0572
     44 H           4.8890    0.2457    0.0000 H       1  UNL1        0.0279
     45 H           4.2690    0.8657    0.0000 H       1  UNL1        0.0279
     46 H           3.6490    0.2457    0.0000 H       1  UNL1        0.0279
     47 H           3.6490   -3.7543    0.0000 H       1  UNL1        0.0279
     48 H           4.2690   -4.3743    0.0000 H       1  UNL1        0.0279
     49 H           4.8890   -3.7543    0.0000 H       1  UNL1        0.0279
     50 H           2.2269   -2.2173    0.0000 H       1  UNL1        0.0279
     51 H           2.0000   -3.0643    0.0000 H       1  UNL1        0.0279
     52 H           2.8469   -3.2912    0.0000 H       1  UNL1        0.0279
     53 H          10.8317   -1.1686    0.0000 H       1  UNL1        0.0313
     54 H          11.5235   -0.7728    0.0000 H       1  UNL1        0.0313
     55 H           2.0000   -1.0643    0.0000 H       1  UNL1        0.2922
     56 H           9.9831    0.6213    0.0000 H       1  UNL1        0.0274
     57 H           9.1371    0.8515    0.0000 H       1  UNL1        0.0274
     58 H           8.9069    0.0054    0.0000 H       1  UNL1        0.0274
     59 H          11.5550    0.9158    0.0000 H       1  UNL1        0.0310
     60 H          10.8632    0.5199    0.0000 H       1  UNL1        0.0310
     61 H          12.7529   -0.2364    0.0000 H       1  UNL1        0.0572
     62 H          13.8383    0.5518    0.0000 H       1  UNL1        0.0313
     63 H          14.5301    0.9477    0.0000 H       1  UNL1        0.0313
     64 H          14.5617    2.6362    0.0000 H       1  UNL1        0.0310
     65 H          13.8699    2.2404    0.0000 H       1  UNL1        0.0310
     66 H          12.9898    2.3417    0.0000 H       1  UNL1        0.0274
     67 H          12.1437    2.5719    0.0000 H       1  UNL1        0.0274
     68 H          11.9135    1.7259    0.0000 H       1  UNL1        0.0274
     69 H          15.7596    1.4841    0.0000 H       1  UNL1        0.0572
     70 H          16.9526    2.2625    0.0000 H       1  UNL1        0.0274
     71 H          17.5750    2.8801    0.0000 H       1  UNL1        0.0274
     72 H          16.9574    3.5025    0.0000 H       1  UNL1        0.0274
     73 H          15.9965    4.0622    0.0000 H       1  UNL1        0.0274
     74 H          15.1504    4.2924    0.0000 H       1  UNL1        0.0274
     75 H          14.9202    3.4464    0.0000 H       1  UNL1        0.0274
@<TRIPOS>BOND
     1     1     3    1
     2     1     8    1
     3     2    14    1
     4     2    55    1
     5     3     4    1
     6     3     5    1
     7     3     9    1
     8     4     6    1
     9     4    32    1
    10     4    33    1
    11     5    10    1
    12     5    34    1
    13     5    35    1
    14     6     7    1
    15     6    36    1
    16     6    37    1
    17     7     8   ar
    18     7    11   ar
    19     8    12   ar
    20     9    38    1
    21     9    39    1
    22     9    40    1
    23    10    15    1
    24    10    41    1
    25    10    42    1
    26    11    14   ar
    27    11    16    1
    28    12    13   ar
    29    12    17    1
    30    13    14   ar
    31    13    19    1
    32    15    18    2
    33    15    43    1
    34    16    44    1
    35    16    45    1
    36    16    46    1
    37    17    47    1
    38    17    48    1
    39    17    49    1
    40    18    20    1
    41    18    21    1
    42    19    50    1
    43    19    51    1
    44    19    52    1
    45    20    22    1
    46    20    53    1
    47    20    54    1
    48    21    56    1
    49    21    57    1
    50    21    58    1
    51    22    23    1
    52    22    59    1
    53    22    60    1
    54    23    24    2
    55    23    61    1
    56    24    25    1
    57    24    27    1
    58    25    26    1
    59    25    62    1
    60    25    63    1
    61    26    28    1
    62    26    64    1
    63    26    65    1
    64    27    66    1
    65    27    67    1
    66    27    68    1
    67    28    29    2
    68    28    69    1
    69    29    30    1
    70    29    31    1
    71    30    70    1
    72    30    71    1
    73    30    72    1
    74    31    73    1
    75    31    74    1
    76    31    75    1
