@<TRIPOS>MOLECULE
IMPHY011100
 40 43 0 0 0
SMALL
GASTEIGER

@<TRIPOS>ATOM
      1 O           2.0000    1.6923    0.0000 O.3     1  UNL1       -0.3647
      2 C           3.4892   -0.6477    0.0000 C.3     1  UNL1       -0.0205
      3 C           3.9892    1.5429    0.0000 C.3     1  UNL1       -0.0037
      4 C           4.3902   -0.2138    0.0000 C.3     1  UNL1       -0.0295
      5 C           2.9892    1.5429    0.0000 C.3     1  UNL1        0.0965
      6 C           4.6127    0.7611    0.0000 C.3     1  UNL1       -0.0260
      7 C           3.3824    0.5291    0.0000 C.3     1  UNL1       -0.0407
      8 C           2.3657    0.7611    0.0000 C.3     1  UNL1        0.0889
      9 C           2.5883   -0.2138    0.0000 C.3     1  UNL1       -0.0177
     10 C           3.6252   -1.6324    0.0000 C.3     1  UNL1       -0.0378
     11 C           5.0753   -0.9341    0.0000 C.3     1  UNL1       -0.0489
     12 C           4.6035   -1.8091    0.0000 C.3     1  UNL1       -0.0497
     13 C           3.6127    2.3248    0.0000 C.3     1  UNL1       -0.0331
     14 C           5.2707    1.5142    0.0000 C.3     1  UNL1       -0.0592
     15 C           5.5322    0.3681    0.0000 C.3     1  UNL1       -0.0592
     16 C           2.9036   -2.3248    0.0000 C.3     1  UNL1       -0.0619
     17 H           4.2582    2.1015    0.0000 H       1  UNL1        0.0335
     18 H           4.9881   -0.0497    0.0000 H       1  UNL1        0.0311
     19 H           2.9746    0.9961    0.0000 H       1  UNL1        0.0275
     20 H           2.8123    0.2852    0.0000 H       1  UNL1        0.0275
     21 H           1.7733    0.5783    0.0000 H       1  UNL1        0.0625
     22 H           1.9683   -0.2138    0.0000 H       1  UNL1        0.0297
     23 H           2.4503   -0.8183    0.0000 H       1  UNL1        0.0297
     24 H           3.8043   -2.2260    0.0000 H       1  UNL1        0.0304
     25 H           5.5871   -1.2841    0.0000 H       1  UNL1        0.0268
     26 H           5.4772   -0.4620    0.0000 H       1  UNL1        0.0268
     27 H           4.4298   -2.4043    0.0000 H       1  UNL1        0.0268
     28 H           5.1771   -2.0444    0.0000 H       1  UNL1        0.0268
     29 H           4.0975    1.9382    0.0000 H       1  UNL1        0.0258
     30 H           3.9993    2.8095    0.0000 H       1  UNL1        0.0258
     31 H           3.1280    2.7113    0.0000 H       1  UNL1        0.0258
     32 H           5.7376    1.1062    0.0000 H       1  UNL1        0.0235
     33 H           5.6786    1.9811    0.0000 H       1  UNL1        0.0235
     34 H           4.8038    1.9221    0.0000 H       1  UNL1        0.0235
     35 H           5.2886   -0.2020    0.0000 H       1  UNL1        0.0235
     36 H           6.1024    0.1244    0.0000 H       1  UNL1        0.0235
     37 H           5.7759    0.9382    0.0000 H       1  UNL1        0.0235
     38 H           2.4744   -1.8774    0.0000 H       1  UNL1        0.0233
     39 H           2.4562   -2.7540    0.0000 H       1  UNL1        0.0233
     40 H           3.3329   -2.7722    0.0000 H       1  UNL1        0.0233
@<TRIPOS>BOND
     1     1     5    1
     2     1     8    1
     3     2     4    1
     4     2     7    1
     5     2     9    1
     6     2    10    1
     7     3     5    1
     8     3     6    1
     9     3     7    1
    10     3    17    1
    11     4     6    1
    12     4    11    1
    13     4    18    1
    14     5     8    1
    15     5    13    1
    16     6    14    1
    17     6    15    1
    18     7    19    1
    19     7    20    1
    20     8     9    1
    21     8    21    1
    22     9    22    1
    23     9    23    1
    24    10    12    1
    25    10    16    1
    26    10    24    1
    27    11    12    1
    28    11    25    1
    29    11    26    1
    30    12    27    1
    31    12    28    1
    32    13    29    1
    33    13    30    1
    34    13    31    1
    35    14    32    1
    36    14    33    1
    37    14    34    1
    38    15    35    1
    39    15    36    1
    40    15    37    1
    41    16    38    1
    42    16    39    1
    43    16    40    1
