@<TRIPOS>MOLECULE
IMPHY003632
 116 124 0 0 0
SMALL
GASTEIGER

@<TRIPOS>ATOM
      1 O           6.8102   -4.6594    0.0000 O.3     1  UNL1       -0.4570
      2 O           8.0777   -2.7047    0.0000 O.3     1  UNL1       -0.3733
      3 O           8.8208   -3.3738    0.0000 O.3     1  UNL1       -0.4658
      4 O           8.6130   -4.3519    0.0000 O.2     1  UNL1       -0.2474
      5 O           8.1801    1.7856    0.0000 O.3     1  UNL1       -0.4947
      6 O           8.0974   -5.8184    0.0000 O.2     1  UNL1       -0.2512
      7 O           6.5287    0.4726    0.0000 O.3     1  UNL1       -0.4670
      8 O           5.2439    0.5176    0.0000 O.2     1  UNL1       -0.2494
      9 N           4.3838   -2.4307    0.0000 N.3     1  UNL1       -0.2939
     10 N           7.4632   -1.4301    0.0000 N.pl3   1  UNL1       -0.3252
     11 N           4.6681    1.8492    0.0000 N.ar    1  UNL1       -0.3565
     12 N           6.8864    5.0043    0.0000 N.3     1  UNL1       -0.3015
     13 C           5.9235   -1.9304    0.0000 C.3     1  UNL1        0.0369
     14 C           5.2980   -2.6250    0.0000 C.3     1  UNL1        0.0348
     15 C           5.5869   -3.5140    0.0000 C.3     1  UNL1        0.0453
     16 C           6.8378   -2.1248    0.0000 C.3     1  UNL1        0.0772
     17 C           7.1266   -3.0137    0.0000 C.3     1  UNL1        0.2195
     18 C           5.5384   -0.8948    0.0000 C.3     1  UNL1       -0.0272
     19 C           6.5012   -3.7083    0.0000 C.3     1  UNL1        0.1542
     20 C           6.2601   -0.3468    0.0000 C.ar    1  UNL1       -0.0162
     21 C           4.0949   -1.5417    0.0000 C.3     1  UNL1        0.0005
     22 C           5.8959   -4.4650    0.0000 C.3     1  UNL1       -0.0418
     23 C           7.1744   -0.5411    0.0000 C.ar    1  UNL1        0.0372
     24 C           4.9614   -4.2086    0.0000 C.2     1  UNL1       -0.0755
     25 C           3.7583   -3.1253    0.0000 C.3     1  UNL1        0.0175
     26 C           4.0472   -4.0143    0.0000 C.2     1  UNL1       -0.0733
     27 C           7.8698   -3.6828    0.0000 C.2     1  UNL1        0.3446
     28 C           5.9713    0.5422    0.0000 C.ar    1  UNL1       -0.0481
     29 C           8.4143   -1.1211    0.0000 C.3     1  UNL1        0.0011
     30 C           7.7998    0.1535    0.0000 C.ar    1  UNL1        0.0017
     31 C           5.2268   -5.2082    0.0000 C.3     1  UNL1       -0.0643
     32 C           6.5967    1.2368    0.0000 C.ar    1  UNL1        0.0172
     33 C           7.5110    1.0425    0.0000 C.ar    1  UNL1        0.1265
     34 C           6.2877    2.1878    0.0000 C.3     1  UNL1        0.1360
     35 C           7.1192   -5.6104    0.0000 C.2     1  UNL1        0.3043
     36 C           7.2388    2.4969    0.0000 C.3     1  UNL1       -0.0235
     37 C           5.3605    2.5624    0.0000 C.ar    1  UNL1        0.0418
     38 C           7.7687    3.3449    0.0000 C.3     1  UNL1       -0.0263
     39 C           5.9131    1.2607    0.0000 C.2     1  UNL1        0.3235
     40 C           6.4501   -6.3536    0.0000 C.3     1  UNL1        0.0332
     41 C           9.5640   -4.0430    0.0000 C.3     1  UNL1        0.0818
     42 C           8.6440    3.8662    0.0000 C.3     1  UNL1       -0.0450
     43 C           7.6295    4.3352    0.0000 C.3     1  UNL1        0.0018
     44 C           4.8910    3.4454    0.0000 C.ar    1  UNL1       -0.0165
     45 C           8.6631    4.8847    0.0000 C.3     1  UNL1       -0.0282
     46 C           7.8080    5.4385    0.0000 C.3     1  UNL1        0.0017
     47 C           5.0990    4.4236    0.0000 C.3     1  UNL1       -0.0126
     48 C           5.8870    5.0392    0.0000 C.3     1  UNL1        0.0030
     49 C           9.1583    1.5777    0.0000 C.3     1  UNL1        0.0788
     50 C           3.9125    3.2702    0.0000 C.ar    1  UNL1        0.0032
     51 C           3.7750    2.2857    0.0000 C.ar    1  UNL1        0.0470
     52 C           9.5460    5.3542    0.0000 C.3     1  UNL1       -0.0519
     53 C           3.1059    3.9195    0.0000 C.ar    1  UNL1       -0.0523
     54 C           2.8214    1.8822    0.0000 C.ar    1  UNL1       -0.0378
     55 C           7.6676    0.6327    0.0000 C.3     1  UNL1        0.0817
     56 C           9.5809    6.3536    0.0000 C.3     1  UNL1       -0.0650
     57 C           2.1432    3.5382    0.0000 C.ar    1  UNL1       -0.0611
     58 C           2.0000    2.5127    0.0000 C.ar    1  UNL1       -0.0598
     59 H           5.0354   -1.8166    0.0000 H       1  UNL1        0.0482
     60 H           7.6692   -2.3015    0.0000 H       1  UNL1        0.0544
     61 H           6.1147   -0.6661    0.0000 H       1  UNL1        0.0287
     62 H           5.2972   -0.3236    0.0000 H       1  UNL1        0.0287
     63 H           7.1076   -3.8372    0.0000 H       1  UNL1        0.0779
     64 H           3.8617   -0.9673    0.0000 H       1  UNL1        0.0427
     65 H           3.5125   -1.7543    0.0000 H       1  UNL1        0.0427
     66 H           6.2776   -4.9536    0.0000 H       1  UNL1        0.0273
     67 H           6.4433   -4.1740    0.0000 H       1  UNL1        0.0273
     68 H           5.1530   -4.7983    0.0000 H       1  UNL1        0.0577
     69 H           3.3766   -2.6368    0.0000 H       1  UNL1        0.0470
     70 H           3.2109   -3.4164    0.0000 H       1  UNL1        0.0470
     71 H           3.6323   -4.4750    0.0000 H       1  UNL1        0.0582
     72 H           5.3648    0.6711    0.0000 H       1  UNL1        0.0625
     73 H           8.4925   -2.2439    0.0000 H       1  UNL1        0.2111
     74 H           8.6059   -1.7108    0.0000 H       1  UNL1        0.0428
     75 H           9.0039   -0.9295    0.0000 H       1  UNL1        0.0428
     76 H           8.2227   -0.5314    0.0000 H       1  UNL1        0.0428
     77 H           8.4063    0.0246    0.0000 H       1  UNL1        0.0673
     78 H           4.7660   -4.7933    0.0000 H       1  UNL1        0.0230
     79 H           4.8119   -5.6690    0.0000 H       1  UNL1        0.0230
     80 H           5.6875   -5.6231    0.0000 H       1  UNL1        0.0230
     81 H           7.2532    1.8770    0.0000 H       1  UNL1        0.0286
     82 H           7.8367    2.3329    0.0000 H       1  UNL1        0.0286
     83 H           8.3633    2.7375    0.0000 H       1  UNL1        0.0314
     84 H           5.9894   -5.9387    0.0000 H       1  UNL1        0.0342
     85 H           6.0352   -6.8144    0.0000 H       1  UNL1        0.0342
     86 H           6.9108   -6.7685    0.0000 H       1  UNL1        0.0342
     87 H           9.1491   -4.5037    0.0000 H       1  UNL1        0.0661
     88 H          10.0247   -4.4578    0.0000 H       1  UNL1        0.0661
     89 H           9.9788   -3.5822    0.0000 H       1  UNL1        0.0661
     90 H           8.8576    3.2842    0.0000 H       1  UNL1        0.0271
     91 H           9.2554    3.9689    0.0000 H       1  UNL1        0.0271
     92 H           8.2424    4.2418    0.0000 H       1  UNL1        0.0429
     93 H           7.8948    4.8956    0.0000 H       1  UNL1        0.0429
     94 H           8.6897    5.5042    0.0000 H       1  UNL1        0.0313
     95 H           4.3572    1.3128    0.0000 H       1  UNL1        0.1656
     96 H           8.2351    5.8879    0.0000 H       1  UNL1        0.0429
     97 H           7.4449    5.9411    0.0000 H       1  UNL1        0.0429
     98 H           4.8734    5.0011    0.0000 H       1  UNL1        0.0326
     99 H           4.4810    4.3731    0.0000 H       1  UNL1        0.0326
    100 H           6.0854    5.6266    0.0000 H       1  UNL1        0.0430
    101 H           5.3812    5.3978    0.0000 H       1  UNL1        0.0430
    102 H           9.0294    0.9712    0.0000 H       1  UNL1        0.0660
    103 H           9.7647    1.4488    0.0000 H       1  UNL1        0.0660
    104 H           9.2872    2.1841    0.0000 H       1  UNL1        0.0660
    105 H           9.7376    4.7646    0.0000 H       1  UNL1        0.0266
    106 H          10.1600    5.4405    0.0000 H       1  UNL1        0.0266
    107 H           3.1988    4.5325    0.0000 H       1  UNL1        0.0624
    108 H           2.7427    1.2672    0.0000 H       1  UNL1        0.0638
    109 H           7.7538    0.0187    0.0000 H       1  UNL1        0.0661
    110 H           8.2815    0.7190    0.0000 H       1  UNL1        0.0661
    111 H           7.5813    1.2467    0.0000 H       1  UNL1        0.0661
    112 H          10.2005    6.3320    0.0000 H       1  UNL1        0.0230
    113 H           9.6026    6.9732    0.0000 H       1  UNL1        0.0230
    114 H           8.9613    6.3752    0.0000 H       1  UNL1        0.0230
    115 H           1.6558    3.9214    0.0000 H       1  UNL1        0.0618
    116 H           1.4262    2.2778    0.0000 H       1  UNL1        0.0618
@<TRIPOS>BOND
     1    19     1    1
     2     1    35    1
     3    17     2    1
     4     2    73    1
     5     3    27    1
     6     3    41    1
     7     4    27    2
     8     5    33    1
     9     5    49    1
    10     6    35    2
    11     7    39    1
    12     7    55    1
    13     8    39    2
    14     9    14    1
    15     9    21    1
    16     9    25    1
    17    10    16    1
    18    10    23    1
    19    10    29    1
    20    11    37   ar
    21    11    51   ar
    22    11    95    1
    23    12    43    1
    24    12    46    1
    25    12    48    1
    26    13    14    1
    27    13    16    1
    28    13    18    1
    29    13    20    1
    30    14    15    1
    31    14    59    1
    32    15    19    1
    33    15    22    1
    34    15    24    1
    35    16    17    1
    36    16    60    1
    37    17    19    1
    38    17    27    1
    39    18    21    1
    40    18    61    1
    41    18    62    1
    42    19    63    1
    43    20    23   ar
    44    20    28   ar
    45    21    64    1
    46    21    65    1
    47    22    31    1
    48    22    66    1
    49    22    67    1
    50    23    30   ar
    51    24    26    2
    52    24    68    1
    53    25    26    1
    54    25    69    1
    55    25    70    1
    56    26    71    1
    57    28    32   ar
    58    28    72    1
    59    29    74    1
    60    29    75    1
    61    29    76    1
    62    30    33   ar
    63    30    77    1
    64    31    78    1
    65    31    79    1
    66    31    80    1
    67    32    33   ar
    68    32    34    1
    69    34    36    1
    70    34    37    1
    71    34    39    1
    72    35    40    1
    73    36    38    1
    74    36    81    1
    75    36    82    1
    76    37    44   ar
    77    38    42    1
    78    38    43    1
    79    38    83    1
    80    40    84    1
    81    40    85    1
    82    40    86    1
    83    41    87    1
    84    41    88    1
    85    41    89    1
    86    42    45    1
    87    42    90    1
    88    42    91    1
    89    43    92    1
    90    43    93    1
    91    44    47    1
    92    44    50   ar
    93    45    46    1
    94    45    52    1
    95    45    94    1
    96    46    96    1
    97    46    97    1
    98    47    48    1
    99    47    98    1
   100    47    99    1
   101    48   100    1
   102    48   101    1
   103    49   102    1
   104    49   103    1
   105    49   104    1
   106    50    51   ar
   107    50    53   ar
   108    51    54   ar
   109    52    56    1
   110    52   105    1
   111    52   106    1
   112    53    57   ar
   113    53   107    1
   114    54    58   ar
   115    54   108    1
   116    55   109    1
   117    55   110    1
   118    55   111    1
   119    56   112    1
   120    56   113    1
   121    56   114    1
   122    57    58   ar
   123    57   115    1
   124    58   116    1
