@<TRIPOS>MOLECULE
IMPHY008370
 40 40 0 0 0
SMALL
GASTEIGER

@<TRIPOS>ATOM
      1 O           6.3301    1.2694    0.0000 O.2     1  UNL1       -0.2974
      2 O           2.0000   -1.2306    0.0000 O.2     1  UNL1       -0.2920
      3 O           3.3660   -4.2694    0.0000 O.2     1  UNL1       -0.4703
      4 C           4.5981    0.2694    0.0000 C.3     1  UNL1       -0.0368
      5 C           4.5981    1.2694    0.0000 C.3     1  UNL1        0.0084
      6 C           3.7320   -0.2306    0.0000 C.3     1  UNL1       -0.0431
      7 C           5.4641    2.7694    0.0000 C.3     1  UNL1        0.0082
      8 C           5.4641    1.7694    0.0000 C.2     1  UNL1        0.1339
      9 C           6.3301    3.2694    0.0000 C.3     1  UNL1       -0.0401
     10 C           5.4641   -0.2306    0.0000 C.3     1  UNL1       -0.0620
     11 C           3.7320   -1.2306    0.0000 C.3     1  UNL1        0.0108
     12 C           6.3301    4.2694    0.0000 C.3     1  UNL1       -0.0623
     13 C           7.1962    2.7694    0.0000 C.3     1  UNL1       -0.0623
     14 C           2.8660   -1.7306    0.0000 C.2     1  UNL1        0.1662
     15 C           2.8660   -2.7306    0.0000 C.ar    1  UNL1        0.0550
     16 C           2.0570   -3.3184    0.0000 C.ar    1  UNL1       -0.0134
     17 C           3.6750   -3.3184    0.0000 C.ar    1  UNL1        0.1021
     18 C           2.3660   -4.2694    0.0000 C.ar    1  UNL1        0.0924
     19 H           4.5981   -0.3506    0.0000 H       1  UNL1        0.0302
     20 H           4.3860    1.8520    0.0000 H       1  UNL1        0.0344
     21 H           3.9875    1.1618    0.0000 H       1  UNL1        0.0344
     22 H           3.5200    0.3520    0.0000 H       1  UNL1        0.0272
     23 H           3.1215   -0.3382    0.0000 H       1  UNL1        0.0272
     24 H           5.2520    3.3520    0.0000 H       1  UNL1        0.0344
     25 H           4.8535    2.6618    0.0000 H       1  UNL1        0.0344
     26 H           6.8671    3.5794    0.0000 H       1  UNL1        0.0299
     27 H           3.9441   -1.8132    0.0000 H       1  UNL1        0.0345
     28 H           4.3426   -1.1229    0.0000 H       1  UNL1        0.0345
     29 H           5.1541   -0.7675    0.0000 H       1  UNL1        0.0233
     30 H           6.0010   -0.5406    0.0000 H       1  UNL1        0.0233
     31 H           5.7741    0.3064    0.0000 H       1  UNL1        0.0233
     32 H           6.8862    2.2325    0.0000 H       1  UNL1        0.0232
     33 H           6.9501    4.2694    0.0000 H       1  UNL1        0.0232
     34 H           6.3301    4.8894    0.0000 H       1  UNL1        0.0232
     35 H           5.7101    4.2694    0.0000 H       1  UNL1        0.0232
     36 H           7.7331    2.4594    0.0000 H       1  UNL1        0.0232
     37 H           7.5062    3.3064    0.0000 H       1  UNL1        0.0232
     38 H           1.4674   -3.1268    0.0000 H       1  UNL1        0.0656
     39 H           4.2647   -3.1268    0.0000 H       1  UNL1        0.1036
     40 H           2.0016   -4.7710    0.0000 H       1  UNL1        0.1029
@<TRIPOS>BOND
     1     1     8    2
     2     2    14    2
     3     3    17   ar
     4     3    18   ar
     5     4     5    1
     6     4     6    1
     7     4    10    1
     8     4    19    1
     9     5     8    1
    10     5    20    1
    11     5    21    1
    12     6    11    1
    13     6    22    1
    14     6    23    1
    15     7     8    1
    16     7     9    1
    17     7    24    1
    18     7    25    1
    19     9    12    1
    20     9    13    1
    21     9    26    1
    22    10    29    1
    23    10    30    1
    24    10    31    1
    25    11    14    1
    26    11    27    1
    27    11    28    1
    28    12    33    1
    29    12    34    1
    30    12    35    1
    31    13    32    1
    32    13    36    1
    33    13    37    1
    34    14    15    1
    35    15    16   ar
    36    15    17   ar
    37    16    18   ar
    38    16    38    1
    39    17    39    1
    40    18    40    1
