@<TRIPOS>MOLECULE
IMPHY014170
 72 77 0 0 0
SMALL
GASTEIGER

@<TRIPOS>ATOM
      1 O           5.5954   -2.9096    0.0000 O.3     1  UNL1       -0.3448
      2 O           3.9300   -1.8284    0.0000 O.3     1  UNL1       -0.3480
      3 O           5.7968    0.8252    0.0000 O.2     1  UNL1       -0.2921
      4 O          10.1833    3.5014    0.0000 O.3     1  UNL1       -0.3892
      5 O          12.0027    2.4696    0.0000 O.3     1  UNL1       -0.3892
      6 C           6.6628   -0.6748    0.0000 C.3     1  UNL1        0.0392
      7 C           7.5288   -1.1748    0.0000 C.3     1  UNL1       -0.0194
      8 C           5.9258   -1.3418    0.0000 C.3     1  UNL1        0.0055
      9 C           6.3309   -2.2496    0.0000 C.3     1  UNL1        0.0664
     10 C           8.3948   -0.6748    0.0000 C.3     1  UNL1       -0.0152
     11 C           7.3196   -2.1466    0.0000 C.3     1  UNL1       -0.0219
     12 C           4.9434   -1.4486    0.0000 C.3     1  UNL1        0.0164
     13 C           9.2888    0.8599    0.0000 C.3     1  UNL1       -0.0051
     14 C           4.7396   -2.4155    0.0000 C.3     1  UNL1        0.1732
     15 C           8.3948    0.3252    0.0000 C.2     1  UNL1       -0.0566
     16 C          10.1949    0.3460    0.0000 C.3     1  UNL1       -0.0294
     17 C           9.2888   -1.2094    0.0000 C.3     1  UNL1       -0.0459
     18 C           6.6628    0.3252    0.0000 C.2     1  UNL1        0.1625
     19 C           5.7968   -0.1748    0.0000 C.3     1  UNL1       -0.0519
     20 C          10.1949   -0.6956    0.0000 C.3     1  UNL1       -0.0488
     21 C           7.5288    0.8252    0.0000 C.2     1  UNL1       -0.0186
     22 C           9.2637    1.9446    0.0000 C.3     1  UNL1       -0.0150
     23 C           4.6359   -3.4101    0.0000 C.3     1  UNL1        0.0020
     24 C          11.1386    0.8813    0.0000 C.3     1  UNL1       -0.0208
     25 C           4.2723   -0.7071    0.0000 C.3     1  UNL1       -0.0572
     26 C           8.4189    1.3532    0.0000 C.3     1  UNL1       -0.0555
     27 C          10.1949    2.5015    0.0000 C.3     1  UNL1        0.0819
     28 C          11.1386    1.9663    0.0000 C.3     1  UNL1        0.0814
     29 C           3.7227   -3.8176    0.0000 C.3     1  UNL1       -0.0435
     30 C           2.9132   -3.2306    0.0000 C.3     1  UNL1       -0.0201
     31 C           3.0169   -2.2359    0.0000 C.3     1  UNL1        0.0535
     32 C           2.0000   -3.6381    0.0000 C.3     1  UNL1       -0.0603
     33 H           8.2158   -1.6753    0.0000 H       1  UNL1        0.0317
     34 H           5.5777   -0.5664    0.0000 H       1  UNL1        0.0340
     35 H           6.6756   -3.0266    0.0000 H       1  UNL1        0.0600
     36 H           8.3883   -1.5247    0.0000 H       1  UNL1        0.0349
     37 H           7.3187   -2.7666    0.0000 H       1  UNL1        0.0293
     38 H           7.9361   -2.2126    0.0000 H       1  UNL1        0.0293
     39 H           4.3448   -1.6103    0.0000 H       1  UNL1        0.0354
     40 H          10.9293   -0.0818    0.0000 H       1  UNL1        0.0310
     41 H           8.8842   -1.6792    0.0000 H       1  UNL1        0.0271
     42 H           9.6824   -1.6884    0.0000 H       1  UNL1        0.0271
     43 H           6.1068    0.3622    0.0000 H       1  UNL1        0.0239
     44 H           5.2598    0.1352    0.0000 H       1  UNL1        0.0239
     45 H           5.4868   -0.7117    0.0000 H       1  UNL1        0.0239
     46 H          10.4039   -1.2793    0.0000 H       1  UNL1        0.0268
     47 H          10.8057   -0.5895    0.0000 H       1  UNL1        0.0268
     48 H           7.5288    1.4452    0.0000 H       1  UNL1        0.0652
     49 H           9.0412    2.5233    0.0000 H       1  UNL1        0.0299
     50 H           8.6555    1.8244    0.0000 H       1  UNL1        0.0299
     51 H           4.7864   -4.0116    0.0000 H       1  UNL1        0.0317
     52 H           5.2544   -3.3663    0.0000 H       1  UNL1        0.0317
     53 H          11.3477    0.2976    0.0000 H       1  UNL1        0.0294
     54 H          11.7495    0.9874    0.0000 H       1  UNL1        0.0294
     55 H           4.7320   -0.2911    0.0000 H       1  UNL1        0.0234
     56 H           3.8562   -0.2475    0.0000 H       1  UNL1        0.0234
     57 H           3.8126   -1.1232    0.0000 H       1  UNL1        0.0234
     58 H           8.7248    1.8925    0.0000 H       1  UNL1        0.0238
     59 H           7.8796    1.6590    0.0000 H       1  UNL1        0.0238
     60 H           8.1131    0.8139    0.0000 H       1  UNL1        0.0238
     61 H           9.6538    2.8042    0.0000 H       1  UNL1        0.0619
     62 H          11.1351    2.5863    0.0000 H       1  UNL1        0.0619
     63 H           3.2771   -4.2487    0.0000 H       1  UNL1        0.0270
     64 H           4.0699   -4.3313    0.0000 H       1  UNL1        0.0270
     65 H           2.4113   -2.8666    0.0000 H       1  UNL1        0.0320
     66 H           2.8664   -1.6345    0.0000 H       1  UNL1        0.0563
     67 H           2.3984   -2.2797    0.0000 H       1  UNL1        0.0563
     68 H          10.7166    3.8176    0.0000 H       1  UNL1        0.2099
     69 H          12.5409    2.1617    0.0000 H       1  UNL1        0.2099
     70 H           1.7473   -3.0719    0.0000 H       1  UNL1        0.0233
     71 H           1.4338   -3.8908    0.0000 H       1  UNL1        0.0233
     72 H           2.2527   -4.2043    0.0000 H       1  UNL1        0.0233
@<TRIPOS>BOND
     1     1     9    1
     2    14     1    1
     3     2    14    1
     4     2    31    1
     5     3    18    2
     6    27     4    1
     7     4    68    1
     8    28     5    1
     9     5    69    1
    10     6     7    1
    11     6     8    1
    12     6    18    1
    13     6    19    1
    14     7    10    1
    15     7    11    1
    16     7    33    1
    17     8     9    1
    18     8    12    1
    19     8    34    1
    20     9    11    1
    21     9    35    1
    22    10    15    1
    23    10    17    1
    24    10    36    1
    25    11    37    1
    26    11    38    1
    27    12    14    1
    28    12    25    1
    29    12    39    1
    30    13    15    1
    31    13    16    1
    32    13    22    1
    33    13    26    1
    34    14    23    1
    35    15    21    2
    36    16    20    1
    37    16    24    1
    38    16    40    1
    39    17    20    1
    40    17    41    1
    41    17    42    1
    42    18    21    1
    43    19    43    1
    44    19    44    1
    45    19    45    1
    46    20    46    1
    47    20    47    1
    48    21    48    1
    49    22    27    1
    50    22    49    1
    51    22    50    1
    52    23    29    1
    53    23    51    1
    54    23    52    1
    55    24    28    1
    56    24    53    1
    57    24    54    1
    58    25    55    1
    59    25    56    1
    60    25    57    1
    61    26    58    1
    62    26    59    1
    63    26    60    1
    64    27    28    1
    65    27    61    1
    66    28    62    1
    67    29    30    1
    68    29    63    1
    69    29    64    1
    70    30    31    1
    71    30    32    1
    72    30    65    1
    73    31    66    1
    74    31    67    1
    75    32    70    1
    76    32    71    1
    77    32    72    1
