@<TRIPOS>MOLECULE
IMPHY012758
 30 30 0 0 0
SMALL
GASTEIGER

@<TRIPOS>ATOM
      1 O           5.1350    3.7500    0.0000 O.3     1  UNL1       -0.3700
      2 O           2.5369    3.2500    0.0000 O.3     1  UNL1       -0.3889
      3 C           3.4030    3.7500    0.0000 C.3     1  UNL1        0.0850
      4 C           3.4030    4.7500    0.0000 C.3     1  UNL1       -0.0220
      5 C           4.2690    3.2500    0.0000 C.3     1  UNL1        0.1035
      6 C           4.2690    5.2500    0.0000 C.3     1  UNL1       -0.0270
      7 C           5.1350    4.7500    0.0000 C.3     1  UNL1        0.0486
      8 C           4.2690    2.2500    0.0000 C.2     1  UNL1       -0.0450
      9 C           5.1350    1.7500    0.0000 C.2     1  UNL1       -0.0120
     10 C           5.1350    0.7500    0.0000 C.1     1  UNL1       -0.0605
     11 C           5.1350   -0.2500    0.0000 C.1     1  UNL1       -0.0092
     12 C           5.1350   -1.2500    0.0000 C.1     1  UNL1       -0.0006
     13 C           5.1350   -2.2500    0.0000 C.1     1  UNL1       -0.0010
     14 C           5.1350   -3.2500    0.0000 C.1     1  UNL1       -0.0142
     15 C           5.1350   -5.2500    0.0000 C.3     1  UNL1       -0.0016
     16 C           5.1350   -4.2500    0.0000 C.1     1  UNL1       -0.0918
     17 H           3.4030    3.1300    0.0000 H       1  UNL1        0.0622
     18 H           3.1909    5.3326    0.0000 H       1  UNL1        0.0292
     19 H           2.7924    4.6423    0.0000 H       1  UNL1        0.0292
     20 H           4.8059    2.9400    0.0000 H       1  UNL1        0.0666
     21 H           4.6675    5.7250    0.0000 H       1  UNL1        0.0288
     22 H           3.8705    5.7250    0.0000 H       1  UNL1        0.0288
     23 H           5.7456    4.6423    0.0000 H       1  UNL1        0.0560
     24 H           5.3471    5.3326    0.0000 H       1  UNL1        0.0560
     25 H           3.7320    1.9400    0.0000 H       1  UNL1        0.0605
     26 H           2.0000    3.5600    0.0000 H       1  UNL1        0.2099
     27 H           5.6720    2.0600    0.0000 H       1  UNL1        0.0710
     28 H           4.5150   -5.2500    0.0000 H       1  UNL1        0.0362
     29 H           5.1350   -5.8700    0.0000 H       1  UNL1        0.0362
     30 H           5.7550   -5.2500    0.0000 H       1  UNL1        0.0362
@<TRIPOS>BOND
     1     1     5    1
     2     1     7    1
     3     2     3    1
     4     2    26    1
     5     3     4    1
     6     3     5    1
     7     3    17    1
     8     4     6    1
     9     4    18    1
    10     4    19    1
    11     5     8    1
    12     5    20    1
    13     6     7    1
    14     6    21    1
    15     6    22    1
    16     7    23    1
    17     7    24    1
    18     8     9    2
    19     8    25    1
    20     9    10    1
    21     9    27    1
    22    10    11    3
    23    11    12    1
    24    12    13    3
    25    13    14    1
    26    14    16    3
    27    15    16    1
    28    15    28    1
    29    15    29    1
    30    15    30    1
