@<TRIPOS>MOLECULE
IMPHY000803
 79 83 0 0 0
SMALL
GASTEIGER

@<TRIPOS>ATOM
      1 O           2.0000   -2.5933    0.0000 O.2     1  UNL1       -0.2968
      2 O          10.9251    0.4932    0.0000 O.3     1  UNL1       -0.4800
      3 O          10.0707   -1.0134    0.0000 O.2     1  UNL1       -0.2500
      4 C           6.5271   -1.0410    0.0000 C.3     1  UNL1       -0.0228
      5 C           5.6610   -0.5410    0.0000 C.3     1  UNL1       -0.0294
      6 C           7.3931   -0.5410    0.0000 C.3     1  UNL1       -0.0198
      7 C           4.7510   -1.0478    0.0000 C.3     1  UNL1       -0.0246
      8 C           7.3931    0.4590    0.0000 C.3     1  UNL1       -0.0129
      9 C           4.7430   -2.0894    0.0000 C.3     1  UNL1       -0.0235
     10 C           6.5431   -2.0825    0.0000 C.3     1  UNL1       -0.0465
     11 C           5.6610    0.4590    0.0000 C.3     1  UNL1       -0.0486
     12 C           5.6451   -2.6102    0.0000 C.3     1  UNL1       -0.0483
     13 C           6.5271    0.9590    0.0000 C.3     1  UNL1       -0.0457
     14 C           8.2870   -1.0756    0.0000 C.3     1  UNL1       -0.0453
     15 C           3.8076   -2.6391    0.0000 C.3     1  UNL1        0.0267
     16 C           3.8242   -0.4837    0.0000 C.3     1  UNL1       -0.0404
     17 C           8.2870    0.9937    0.0000 C.2     1  UNL1       -0.0527
     18 C           7.1698   -1.8070    0.0000 C.3     1  UNL1       -0.0588
     19 C           9.1931    0.4799    0.0000 C.3     1  UNL1        0.0888
     20 C           9.1931   -0.5618    0.0000 C.3     1  UNL1       -0.0329
     21 C           7.7352   -1.4806    0.0000 C.3     1  UNL1       -0.0585
     22 C           4.7587   -0.0478    0.0000 C.3     1  UNL1       -0.0590
     23 C           2.8763   -1.0117    0.0000 C.3     1  UNL1        0.0069
     24 C           2.8680   -2.0966    0.0000 C.2     1  UNL1        0.1392
     25 C          10.1369    1.0151    0.0000 C.3     1  UNL1       -0.0327
     26 C           8.2619    2.0784    0.0000 C.2     1  UNL1       -0.0778
     27 C           9.1931    2.6353    0.0000 C.3     1  UNL1       -0.0165
     28 C           3.3109   -3.5071    0.0000 C.3     1  UNL1       -0.0528
     29 C           4.3109   -3.5032    0.0000 C.3     1  UNL1       -0.0528
     30 C          10.1369    2.1001    0.0000 C.3     1  UNL1       -0.0431
     31 C          10.0629   -0.0135    0.0000 C.2     1  UNL1        0.3150
     32 C           9.6830    3.5071    0.0000 C.3     1  UNL1       -0.0563
     33 C           8.6831    3.4955    0.0000 C.3     1  UNL1       -0.0563
     34 H           6.3972   -0.1160    0.0000 H       1  UNL1        0.0312
     35 H           7.3865    1.3090    0.0000 H       1  UNL1        0.0351
     36 H           4.7463   -2.9394    0.0000 H       1  UNL1        0.0315
     37 H           6.7612   -2.6629    0.0000 H       1  UNL1        0.0271
     38 H           7.1523   -1.9670    0.0000 H       1  UNL1        0.0271
     39 H           5.4490    1.0416    0.0000 H       1  UNL1        0.0268
     40 H           5.0504    0.3514    0.0000 H       1  UNL1        0.0268
     41 H           5.2478   -3.0862    0.0000 H       1  UNL1        0.0269
     42 H           6.0460   -3.0831    0.0000 H       1  UNL1        0.0269
     43 H           6.9256    1.4340    0.0000 H       1  UNL1        0.0271
     44 H           6.1285    1.4340    0.0000 H       1  UNL1        0.0271
     45 H           7.8824   -1.5454    0.0000 H       1  UNL1        0.0271
     46 H           8.6806   -1.5546    0.0000 H       1  UNL1        0.0271
     47 H           4.2324   -0.0171    0.0000 H       1  UNL1        0.0275
     48 H           3.4343   -0.0017    0.0000 H       1  UNL1        0.0275
     49 H           6.6949   -2.2055    0.0000 H       1  UNL1        0.0235
     50 H           7.5684   -2.2820    0.0000 H       1  UNL1        0.0235
     51 H           7.6448   -1.4085    0.0000 H       1  UNL1        0.0235
     52 H           9.4022   -1.1455    0.0000 H       1  UNL1        0.0279
     53 H           9.8040   -0.4557    0.0000 H       1  UNL1        0.0279
     54 H           7.1526   -1.6927    0.0000 H       1  UNL1        0.0235
     55 H           7.9473   -2.0632    0.0000 H       1  UNL1        0.0235
     56 H           8.3178   -1.2685    0.0000 H       1  UNL1        0.0235
     57 H           5.3787   -0.0526    0.0000 H       1  UNL1        0.0235
     58 H           4.7635    0.5721    0.0000 H       1  UNL1        0.0235
     59 H           4.1388   -0.0431    0.0000 H       1  UNL1        0.0235
     60 H           2.6718   -0.4264    0.0000 H       1  UNL1        0.0342
     61 H           2.2647   -1.1131    0.0000 H       1  UNL1        0.0342
     62 H          10.3459    0.4314    0.0000 H       1  UNL1        0.0279
     63 H          10.7477    1.1212    0.0000 H       1  UNL1        0.0279
     64 H           7.7191    2.3780    0.0000 H       1  UNL1        0.0577
     65 H           2.7728   -3.1992    0.0000 H       1  UNL1        0.0239
     66 H           3.0030   -4.0452    0.0000 H       1  UNL1        0.0239
     67 H           3.8490   -3.8150    0.0000 H       1  UNL1        0.0239
     68 H           3.7752   -3.8153    0.0000 H       1  UNL1        0.0239
     69 H           4.6230   -4.0390    0.0000 H       1  UNL1        0.0239
     70 H           4.8466   -3.1912    0.0000 H       1  UNL1        0.0239
     71 H          10.7477    1.9940    0.0000 H       1  UNL1        0.0274
     72 H          10.3459    2.6838    0.0000 H       1  UNL1        0.0274
     73 H          10.2235    3.2033    0.0000 H       1  UNL1        0.0238
     74 H           9.9868    4.0476    0.0000 H       1  UNL1        0.0238
     75 H           9.1426    3.8108    0.0000 H       1  UNL1        0.0238
     76 H           9.2164    3.8117    0.0000 H       1  UNL1        0.0238
     77 H           8.3669    4.0288    0.0000 H       1  UNL1        0.0238
     78 H           8.1498    3.1793    0.0000 H       1  UNL1        0.0238
     79 H          11.4644    0.1874    0.0000 H       1  UNL1        0.2951
@<TRIPOS>BOND
     1     1    24    2
     2     2    31    1
     3     2    79    1
     4     3    31    2
     5     4     5    1
     6     4     6    1
     7     4    10    1
     8     4    18    1
     9     5     7    1
    10     5    11    1
    11     5    34    1
    12     6     8    1
    13     6    14    1
    14     6    21    1
    15     7     9    1
    16     7    16    1
    17     7    22    1
    18     8    13    1
    19     8    17    1
    20     8    35    1
    21     9    12    1
    22     9    15    1
    23     9    36    1
    24    10    12    1
    25    10    37    1
    26    10    38    1
    27    11    13    1
    28    11    39    1
    29    11    40    1
    30    12    41    1
    31    12    42    1
    32    13    43    1
    33    13    44    1
    34    14    20    1
    35    14    45    1
    36    14    46    1
    37    15    24    1
    38    15    28    1
    39    15    29    1
    40    16    23    1
    41    16    47    1
    42    16    48    1
    43    17    19    1
    44    17    26    2
    45    18    49    1
    46    18    50    1
    47    18    51    1
    48    19    20    1
    49    19    25    1
    50    19    31    1
    51    20    52    1
    52    20    53    1
    53    21    54    1
    54    21    55    1
    55    21    56    1
    56    22    57    1
    57    22    58    1
    58    22    59    1
    59    23    24    1
    60    23    60    1
    61    23    61    1
    62    25    30    1
    63    25    62    1
    64    25    63    1
    65    26    27    1
    66    26    64    1
    67    27    30    1
    68    27    32    1
    69    27    33    1
    70    28    65    1
    71    28    66    1
    72    28    67    1
    73    29    68    1
    74    29    69    1
    75    29    70    1
    76    30    71    1
    77    30    72    1
    78    32    73    1
    79    32    74    1
    80    32    75    1
    81    33    76    1
    82    33    77    1
    83    33    78    1
