@<TRIPOS>MOLECULE
IMPHY014871
 42 41 0 0 0
SMALL
GASTEIGER

@<TRIPOS>ATOM
      1 O           2.5369    0.6340    0.0000 O.3     1  UNL1       -0.3848
      2 C           3.4030    1.1340    0.0000 C.3     1  UNL1        0.0814
      3 C           4.2690    1.6340    0.0000 C.3     1  UNL1       -0.0172
      4 C           5.1350    1.1340    0.0000 C.3     1  UNL1       -0.0316
      5 C           6.0010    1.6340    0.0000 C.2     1  UNL1       -0.0849
      6 C           6.8671    1.1340    0.0000 C.2     1  UNL1       -0.0762
      7 C           6.8671    0.1340    0.0000 C.3     1  UNL1       -0.0286
      8 C           3.9030    0.2679    0.0000 C.3     1  UNL1       -0.0324
      9 C           2.9030    2.0000    0.0000 C.2     1  UNL1       -0.0602
     10 C           7.7331   -0.3660    0.0000 C.3     1  UNL1       -0.0308
     11 C           7.7331    1.6340    0.0000 C.3     1  UNL1       -0.0438
     12 C           7.7331   -1.3660    0.0000 C.2     1  UNL1       -0.0850
     13 C           8.5991   -1.8660    0.0000 C.2     1  UNL1       -0.0796
     14 C           3.4030    2.8660    0.0000 C.2     1  UNL1       -0.1000
     15 C           8.5991   -2.8660    0.0000 C.3     1  UNL1       -0.0440
     16 C           9.4651   -1.3660    0.0000 C.3     1  UNL1       -0.0440
     17 H           4.6675    2.1089    0.0000 H       1  UNL1        0.0299
     18 H           3.8705    2.1089    0.0000 H       1  UNL1        0.0299
     19 H           4.7365    0.6590    0.0000 H       1  UNL1        0.0308
     20 H           5.5335    0.6590    0.0000 H       1  UNL1        0.0308
     21 H           6.0010    2.2540    0.0000 H       1  UNL1        0.0572
     22 H           6.2565    0.2416    0.0000 H       1  UNL1        0.0313
     23 H           6.6550   -0.4486    0.0000 H       1  UNL1        0.0313
     24 H           3.3660   -0.0421    0.0000 H       1  UNL1        0.0260
     25 H           4.2130   -0.2690    0.0000 H       1  UNL1        0.0260
     26 H           4.4399    0.5779    0.0000 H       1  UNL1        0.0260
     27 H           2.2830    2.0000    0.0000 H       1  UNL1        0.0594
     28 H           8.3437   -0.4737    0.0000 H       1  UNL1        0.0310
     29 H           7.9451    0.2166    0.0000 H       1  UNL1        0.0310
     30 H           8.0431    1.0970    0.0000 H       1  UNL1        0.0274
     31 H           8.2700    1.9440    0.0000 H       1  UNL1        0.0274
     32 H           7.4231    2.1709    0.0000 H       1  UNL1        0.0274
     33 H           2.0000    0.9440    0.0000 H       1  UNL1        0.2106
     34 H           7.1962   -1.6760    0.0000 H       1  UNL1        0.0572
     35 H           4.0230    2.8660    0.0000 H       1  UNL1        0.0533
     36 H           3.0930    3.4030    0.0000 H       1  UNL1        0.0533
     37 H           7.9791   -2.8660    0.0000 H       1  UNL1        0.0274
     38 H           8.5991   -3.4860    0.0000 H       1  UNL1        0.0274
     39 H           9.2191   -2.8660    0.0000 H       1  UNL1        0.0274
     40 H           9.7751   -1.9030    0.0000 H       1  UNL1        0.0274
     41 H          10.0021   -1.0560    0.0000 H       1  UNL1        0.0274
     42 H           9.1551   -0.8291    0.0000 H       1  UNL1        0.0274
@<TRIPOS>BOND
     1     1     2    1
     2     1    33    1
     3     2     3    1
     4     2     8    1
     5     2     9    1
     6     3     4    1
     7     3    17    1
     8     3    18    1
     9     4     5    1
    10     4    19    1
    11     4    20    1
    12     5     6    2
    13     5    21    1
    14     6     7    1
    15     6    11    1
    16     7    10    1
    17     7    22    1
    18     7    23    1
    19     8    24    1
    20     8    25    1
    21     8    26    1
    22     9    14    2
    23     9    27    1
    24    10    12    1
    25    10    28    1
    26    10    29    1
    27    11    30    1
    28    11    31    1
    29    11    32    1
    30    12    13    2
    31    12    34    1
    32    13    15    1
    33    13    16    1
    34    14    35    1
    35    14    36    1
    36    15    37    1
    37    15    38    1
    38    15    39    1
    39    16    40    1
    40    16    41    1
    41    16    42    1
