@<TRIPOS>MOLECULE
IMPHY001705
 112 121 0 0 0
SMALL
GASTEIGER

@<TRIPOS>ATOM
      1 O          10.0835   -0.7247    0.0000 O.3     1  UNL1       -0.4530
      2 O           9.6679   -1.5646    0.0000 O.3     1  UNL1       -0.4502
      3 O           9.6834    2.3550    0.0000 O.3     1  UNL1       -0.4808
      4 O           8.0172   -1.1594    0.0000 O.3     1  UNL1       -0.4512
      5 O           8.9151    1.5112    0.0000 O.3     1  UNL1       -0.3846
      6 O          12.7495    1.7961    0.0000 O.3     1  UNL1       -0.5030
      7 O           8.7536    4.9060    0.0000 O.3     1  UNL1       -0.3875
      8 O          13.1894    1.4187    0.0000 O.3     1  UNL1       -0.5062
      9 O          11.9332   -1.5697    0.0000 O.2     1  UNL1       -0.2449
     10 O           7.1345    0.0462    0.0000 O.3     1  UNL1       -0.4584
     11 O          12.4010    4.5734    0.0000 O.3     1  UNL1       -0.5063
     12 O          14.4816   -1.2039    0.0000 O.3     1  UNL1       -0.5028
     13 O          14.4816    0.7961    0.0000 O.3     1  UNL1       -0.5009
     14 O           9.8524   -3.1855    0.0000 O.2     1  UNL1       -0.2449
     15 O          13.9422   -2.2567    0.0000 O.3     1  UNL1       -0.5028
     16 O           6.6782   -0.1336    0.0000 O.2     1  UNL1       -0.2449
     17 O          13.7446   -4.1890    0.0000 O.3     1  UNL1       -0.5009
     18 O          11.9822   -5.0057    0.0000 O.3     1  UNL1       -0.5032
     19 O           5.7710    4.3654    0.0000 O.3     1  UNL1       -0.5033
     20 O           5.0725    2.4914    0.0000 O.3     1  UNL1       -0.5033
     21 O           5.9856   -1.4765    0.0000 O.2     1  UNL1       -0.2449
     22 O           5.0117   -3.9416    0.0000 O.3     1  UNL1       -0.5028
     23 O           8.5371   -4.2611    0.0000 O.3     1  UNL1       -0.5032
     24 O           4.1973   -3.3722    0.0000 O.3     1  UNL1       -0.5028
     25 O           6.6813   -5.1281    0.0000 O.3     1  UNL1       -0.5009
     26 O           2.5095   -2.2116    0.0000 O.3     1  UNL1       -0.5009
     27 O           2.6865   -0.1710    0.0000 O.3     1  UNL1       -0.5032
     28 C          10.9896    0.8307    0.0000 C.3     1  UNL1        0.0612
     29 C          10.0835    0.3169    0.0000 C.3     1  UNL1        0.1547
     30 C           9.5666   -0.5556    0.0000 C.3     1  UNL1        0.1800
     31 C          11.8835    0.2961    0.0000 C.ar    1  UNL1        0.0237
     32 C          11.3424    1.7664    0.0000 C.ar    1  UNL1        0.0473
     33 C           8.5901   -0.3398    0.0000 C.3     1  UNL1        0.1724
     34 C          11.8835   -0.7039    0.0000 C.ar    1  UNL1        0.0779
     35 C          10.7086    2.5398    0.0000 C.ar    1  UNL1        0.1356
     36 C           8.4158    0.6448    0.0000 C.3     1  UNL1        0.1296
     37 C          11.0614    3.4755    0.0000 C.ar    1  UNL1        0.0387
     38 C          10.9896   -1.2386    0.0000 C.2     1  UNL1        0.3407
     39 C          10.4136    4.2912    0.0000 C.3     1  UNL1        0.0092
     40 C          12.7495   -1.2039    0.0000 C.ar    1  UNL1        0.0461
     41 C          12.7495    0.7961    0.0000 C.ar    1  UNL1        0.1668
     42 C           9.3845    4.1302    0.0000 C.3     1  UNL1        0.1004
     43 C           9.0170    3.1555    0.0000 C.3     1  UNL1        0.1513
     44 C          12.3292    1.9287    0.0000 C.ar    1  UNL1        0.1277
     45 C          12.0482    3.6378    0.0000 C.ar    1  UNL1        0.1271
     46 C          12.2616   -2.0929    0.0000 C.ar    1  UNL1        0.0458
     47 C          13.6156   -0.7039    0.0000 C.ar    1  UNL1        0.1708
     48 C          13.6156    0.2961    0.0000 C.ar    1  UNL1        0.2015
     49 C          12.6821    2.8644    0.0000 C.ar    1  UNL1        0.0221
     50 C           7.4758    0.9861    0.0000 C.3     1  UNL1        0.1222
     51 C          10.3479   -2.3169    0.0000 C.2     1  UNL1        0.3405
     52 C          11.3416   -2.5193    0.0000 C.ar    1  UNL1        0.0740
     53 C           8.0309    2.9895    0.0000 C.ar    1  UNL1       -0.0012
     54 C          13.0273   -2.6604    0.0000 C.ar    1  UNL1        0.1708
     55 C           7.0209   -1.0730    0.0000 C.2     1  UNL1        0.3405
     56 C          11.2796   -3.4703    0.0000 C.ar    1  UNL1       -0.0017
     57 C           7.3940    3.7604    0.0000 C.ar    1  UNL1       -0.0098
     58 C           7.6816    2.0524    0.0000 C.ar    1  UNL1       -0.0513
     59 C          12.9303   -3.6085    0.0000 C.ar    1  UNL1        0.2012
     60 C          12.0656   -4.0092    0.0000 C.ar    1  UNL1        0.1628
     61 C           6.9345   -2.0693    0.0000 C.ar    1  UNL1        0.0740
     62 C           6.4079    3.5944    0.0000 C.ar    1  UNL1        0.1586
     63 C           6.0285   -2.4926    0.0000 C.ar    1  UNL1        0.0458
     64 C           6.6955    1.8865    0.0000 C.ar    1  UNL1       -0.0162
     65 C           6.2013   -0.5001    0.0000 C.2     1  UNL1        0.3401
     66 C           6.0586    2.6574    0.0000 C.ar    1  UNL1        0.1582
     67 C           5.2089   -1.9196    0.0000 C.ar    1  UNL1        0.0458
     68 C           5.2953   -0.9234    0.0000 C.ar    1  UNL1        0.0740
     69 C           7.7973   -2.6529    0.0000 C.ar    1  UNL1       -0.0017
     70 C           5.9225   -3.5288    0.0000 C.ar    1  UNL1        0.1708
     71 C           7.7153   -3.6913    0.0000 C.ar    1  UNL1        0.1628
     72 C           4.2721   -2.3750    0.0000 C.ar    1  UNL1        0.1708
     73 C           4.4510   -0.3134    0.0000 C.ar    1  UNL1       -0.0017
     74 C           6.7716   -4.1322    0.0000 C.ar    1  UNL1        0.2012
     75 C           3.4139   -1.7848    0.0000 C.ar    1  UNL1        0.2012
     76 C           3.5039   -0.7471    0.0000 C.ar    1  UNL1        0.1628
     77 H          10.5185    1.2338    0.0000 H       1  UNL1        0.0438
     78 H           9.6493    0.7594    0.0000 H       1  UNL1        0.0782
     79 H           9.3199    0.0132    0.0000 H       1  UNL1        0.0811
     80 H           9.0377    0.0892    0.0000 H       1  UNL1        0.0801
     81 H           9.0264    0.5376    0.0000 H       1  UNL1        0.0666
     82 H          10.9580    4.5880    0.0000 H       1  UNL1        0.0342
     83 H          10.2144    4.8783    0.0000 H       1  UNL1        0.0342
     84 H           9.6067    4.7090    0.0000 H       1  UNL1        0.0637
     85 H           8.6230    3.6343    0.0000 H       1  UNL1        0.0811
     86 H          13.2938    2.9649    0.0000 H       1  UNL1        0.0691
     87 H           7.6874    1.5689    0.0000 H       1  UNL1        0.0725
     88 H           6.8930    1.1978    0.0000 H       1  UNL1        0.0725
     89 H           9.5351    1.5117    0.0000 H       1  UNL1        0.2101
     90 H          13.1481    2.2710    0.0000 H       1  UNL1        0.2923
     91 H           8.9746    5.4853    0.0000 H       1  UNL1        0.2100
     92 H          13.8012    1.5193    0.0000 H       1  UNL1        0.2921
     93 H          10.7220   -3.7413    0.0000 H       1  UNL1        0.0664
     94 H           7.6105    4.3414    0.0000 H       1  UNL1        0.0659
     95 H           8.0764    1.5744    0.0000 H       1  UNL1        0.0623
     96 H          13.0128    4.6740    0.0000 H       1  UNL1        0.2921
     97 H          15.0185   -0.8939    0.0000 H       1  UNL1        0.2923
     98 H          15.0185    0.4861    0.0000 H       1  UNL1        0.2924
     99 H           6.4790    1.3055    0.0000 H       1  UNL1        0.0655
    100 H          14.4426   -2.6228    0.0000 H       1  UNL1        0.2923
    101 H           8.3560   -2.3839    0.0000 H       1  UNL1        0.0664
    102 H          13.6853   -4.8062    0.0000 H       1  UNL1        0.2924
    103 H          11.4213   -5.2698    0.0000 H       1  UNL1        0.2923
    104 H           4.5117    0.3036    0.0000 H       1  UNL1        0.0664
    105 H           5.9876    4.9463    0.0000 H       1  UNL1        0.2923
    106 H           4.6777    2.9694    0.0000 H       1  UNL1        0.2923
    107 H           4.9510   -4.5586    0.0000 H       1  UNL1        0.2923
    108 H           8.4859   -4.8789    0.0000 H       1  UNL1        0.2923
    109 H           3.6386   -3.6411    0.0000 H       1  UNL1        0.2923
    110 H           7.1881   -5.4853    0.0000 H       1  UNL1        0.2924
    111 H           2.0000   -1.8583    0.0000 H       1  UNL1        0.2924
    112 H           2.7425    0.4465    0.0000 H       1  UNL1        0.2923
@<TRIPOS>BOND
     1     1    29    1
     2     1    38    1
     3     2    30    1
     4     2    51    1
     5     3    35    1
     6     3    43    1
     7     4    33    1
     8     4    55    1
     9     5    36    1
    10     5    89    1
    11     6    41    1
    12     6    90    1
    13     7    42    1
    14     7    91    1
    15     8    44    1
    16     8    92    1
    17     9    38    2
    18    10    50    1
    19    10    65    1
    20    11    45    1
    21    11    96    1
    22    12    47    1
    23    12    97    1
    24    13    48    1
    25    13    98    1
    26    14    51    2
    27    15    54    1
    28    15   100    1
    29    16    55    2
    30    17    59    1
    31    17   102    1
    32    18    60    1
    33    18   103    1
    34    19    62    1
    35    19   105    1
    36    20    66    1
    37    20   106    1
    38    21    65    2
    39    22    70    1
    40    22   107    1
    41    23    71    1
    42    23   108    1
    43    24    72    1
    44    24   109    1
    45    25    74    1
    46    25   110    1
    47    26    75    1
    48    26   111    1
    49    27    76    1
    50    27   112    1
    51    28    29    1
    52    28    31    1
    53    28    32    1
    54    28    77    1
    55    29    30    1
    56    29    78    1
    57    30    33    1
    58    30    79    1
    59    31    34   ar
    60    31    41   ar
    61    32    35   ar
    62    32    44   ar
    63    33    36    1
    64    33    80    1
    65    34    38    1
    66    34    40   ar
    67    35    37   ar
    68    36    50    1
    69    36    81    1
    70    37    39    1
    71    37    45   ar
    72    39    42    1
    73    39    82    1
    74    39    83    1
    75    40    46    1
    76    40    47   ar
    77    41    48   ar
    78    42    43    1
    79    42    84    1
    80    43    53    1
    81    43    85    1
    82    44    49   ar
    83    45    49   ar
    84    46    52   ar
    85    46    54   ar
    86    47    48   ar
    87    49    86    1
    88    50    87    1
    89    50    88    1
    90    51    52    1
    91    52    56   ar
    92    53    57   ar
    93    53    58   ar
    94    54    59   ar
    95    55    61    1
    96    56    60   ar
    97    56    93    1
    98    57    62   ar
    99    57    94    1
   100    58    64   ar
   101    58    95    1
   102    59    60   ar
   103    61    63   ar
   104    61    69   ar
   105    62    66   ar
   106    63    67    1
   107    63    70   ar
   108    64    66   ar
   109    64    99    1
   110    65    68    1
   111    67    68   ar
   112    67    72   ar
   113    68    73   ar
   114    69    71   ar
   115    69   101    1
   116    70    74   ar
   117    71    74   ar
   118    72    75   ar
   119    73    76   ar
   120    73   104    1
   121    75    76   ar
