@<TRIPOS>MOLECULE
IMPHY014301
 77 81 0 0 0
SMALL
GASTEIGER

@<TRIPOS>ATOM
      1 O           6.3301   -2.7890    0.0000 O.3     1  UNL1       -0.3302
      2 O           5.4520    2.7869    0.0000 O.3     1  UNL1       -0.3339
      3 O           8.0622   -2.7890    0.0000 O.3     1  UNL1       -0.4532
      4 O           4.5981   -4.7890    0.0000 O.3     1  UNL1       -0.3864
      5 O           6.3301   -5.7890    0.0000 O.3     1  UNL1       -0.3864
      6 O           8.0622   -4.7890    0.0000 O.3     1  UNL1       -0.3829
      7 O           7.1840    2.7803    0.0000 O.3     1  UNL1       -0.4606
      8 O           5.4636    5.7869    0.0000 O.3     1  UNL1       -0.3864
      9 O           3.7277    4.7936    0.0000 O.3     1  UNL1       -0.3866
     10 O           7.1918    4.7802    0.0000 O.3     1  UNL1       -0.3829
     11 O           3.7320   -3.2890    0.0000 O.3     1  UNL1       -0.4621
     12 O           8.9282   -0.2890    0.0000 O.2     1  UNL1       -0.4507
     13 O           6.3301   -1.7890    0.0000 O.2     1  UNL1       -0.2830
     14 O           5.4260   -0.2921    0.0000 O.3     1  UNL1       -0.5058
     15 O           2.8660   -1.7890    0.0000 O.2     1  UNL1       -0.2512
     16 O          12.3923   -3.2890    0.0000 O.3     1  UNL1       -0.5068
     17 C           5.4641   -4.2890    0.0000 C.3     1  UNL1        0.1130
     18 C           6.3301   -4.7890    0.0000 C.3     1  UNL1        0.1152
     19 C           5.4641   -3.2890    0.0000 C.3     1  UNL1        0.1250
     20 C           7.1962   -4.2890    0.0000 C.3     1  UNL1        0.1454
     21 C           7.1962   -3.2890    0.0000 C.3     1  UNL1        0.2312
     22 C           5.4597    4.7869    0.0000 C.3     1  UNL1        0.1151
     23 C           4.5918    4.2903    0.0000 C.3     1  UNL1        0.1096
     24 C           6.3238    4.2836    0.0000 C.3     1  UNL1        0.1454
     25 C           4.5879    3.2903    0.0000 C.3     1  UNL1        0.0883
     26 C           6.3200    3.2836    0.0000 C.3     1  UNL1        0.2307
     27 C           4.5981   -2.7890    0.0000 C.3     1  UNL1        0.1212
     28 C           3.7200    2.7936    0.0000 C.3     1  UNL1       -0.0360
     29 C           8.0622   -1.7890    0.0000 C.ar    1  UNL1        0.2138
     30 C           7.1802    1.7803    0.0000 C.ar    1  UNL1        0.1310
     31 C           7.1962   -0.2890    0.0000 C.ar    1  UNL1        0.1092
     32 C           7.1962   -1.2890    0.0000 C.ar    1  UNL1        0.2382
     33 C           8.9282   -1.2890    0.0000 C.ar    1  UNL1        0.1809
     34 C           8.0622    0.2110    0.0000 C.ar    1  UNL1        0.1465
     35 C           8.0782    1.2525    0.0000 C.ar    1  UNL1        0.0235
     36 C           6.2781    1.2595    0.0000 C.ar    1  UNL1        0.0226
     37 C           6.2862    0.2179    0.0000 C.ar    1  UNL1        0.1348
     38 C           9.7942   -1.7890    0.0000 C.ar    1  UNL1        0.0213
     39 C           2.8660   -2.7890    0.0000 C.2     1  UNL1        0.3040
     40 C           9.7942   -2.7890    0.0000 C.ar    1  UNL1       -0.0475
     41 C          10.6603   -1.2890    0.0000 C.ar    1  UNL1       -0.0475
     42 C           2.0000   -3.2890    0.0000 C.3     1  UNL1        0.0332
     43 C          10.6603   -3.2890    0.0000 C.ar    1  UNL1       -0.0195
     44 C          11.5263   -1.7890    0.0000 C.ar    1  UNL1       -0.0195
     45 C          11.5263   -2.7890    0.0000 C.ar    1  UNL1        0.1169
     46 H           5.4641   -4.9090    0.0000 H       1  UNL1        0.0647
     47 H           5.7932   -5.0990    0.0000 H       1  UNL1        0.0648
     48 H           5.4641   -2.6690    0.0000 H       1  UNL1        0.0658
     49 H           7.1962   -4.9090    0.0000 H       1  UNL1        0.0683
     50 H           7.7331   -3.5990    0.0000 H       1  UNL1        0.1084
     51 H           5.9978    5.0949    0.0000 H       1  UNL1        0.0648
     52 H           4.0536    3.9823    0.0000 H       1  UNL1        0.0646
     53 H           6.8596    3.9715    0.0000 H       1  UNL1        0.0683
     54 H           4.5855    2.6703    0.0000 H       1  UNL1        0.0621
     55 H           6.3176    2.6636    0.0000 H       1  UNL1        0.1084
     56 H           4.9966   -2.3140    0.0000 H       1  UNL1        0.0724
     57 H           4.1996   -2.3140    0.0000 H       1  UNL1        0.0724
     58 H           3.4120    3.3318    0.0000 H       1  UNL1        0.0255
     59 H           3.1818    2.4857    0.0000 H       1  UNL1        0.0255
     60 H           4.0279    2.2555    0.0000 H       1  UNL1        0.0255
     61 H           4.5981   -5.4090    0.0000 H       1  UNL1        0.2100
     62 H           5.7932   -6.0990    0.0000 H       1  UNL1        0.2100
     63 H           8.0622   -5.4090    0.0000 H       1  UNL1        0.2102
     64 H           4.9278    6.0990    0.0000 H       1  UNL1        0.2100
     65 H           3.1896    4.4857    0.0000 H       1  UNL1        0.2100
     66 H           7.1942    5.4002    0.0000 H       1  UNL1        0.2102
     67 H           8.6187    1.5563    0.0000 H       1  UNL1        0.0691
     68 H           5.7400    1.5674    0.0000 H       1  UNL1        0.0691
     69 H           9.2573   -3.0990    0.0000 H       1  UNL1        0.0626
     70 H          10.6603   -0.6690    0.0000 H       1  UNL1        0.0626
     71 H           1.6900   -2.7520    0.0000 H       1  UNL1        0.0342
     72 H           1.4631   -3.5990    0.0000 H       1  UNL1        0.0342
     73 H           2.3100   -3.8259    0.0000 H       1  UNL1        0.0342
     74 H           4.8855    0.0116    0.0000 H       1  UNL1        0.2922
     75 H          10.6603   -3.9090    0.0000 H       1  UNL1        0.0654
     76 H          12.0632   -1.4790    0.0000 H       1  UNL1        0.0654
     77 H          12.3923   -3.9090    0.0000 H       1  UNL1        0.2921
@<TRIPOS>BOND
     1     1    19    1
     2     1    21    1
     3     2    25    1
     4     2    26    1
     5     3    21    1
     6     3    29    1
     7     4    17    1
     8     4    61    1
     9     5    18    1
    10     5    62    1
    11     6    20    1
    12     6    63    1
    13     7    26    1
    14     7    30    1
    15     8    22    1
    16     8    64    1
    17     9    23    1
    18     9    65    1
    19    10    24    1
    20    10    66    1
    21    11    27    1
    22    11    39    1
    23    12    33   ar
    24    12    34   ar
    25    13    32    2
    26    14    37    1
    27    14    74    1
    28    15    39    2
    29    16    45    1
    30    16    77    1
    31    17    18    1
    32    17    19    1
    33    17    46    1
    34    18    20    1
    35    18    47    1
    36    19    27    1
    37    19    48    1
    38    20    21    1
    39    20    49    1
    40    21    50    1
    41    22    23    1
    42    22    24    1
    43    22    51    1
    44    23    25    1
    45    23    52    1
    46    24    26    1
    47    24    53    1
    48    25    28    1
    49    25    54    1
    50    26    55    1
    51    27    56    1
    52    27    57    1
    53    28    58    1
    54    28    59    1
    55    28    60    1
    56    29    32   ar
    57    29    33   ar
    58    30    35   ar
    59    30    36   ar
    60    31    32   ar
    61    31    34   ar
    62    31    37   ar
    63    33    38    1
    64    34    35   ar
    65    35    67    1
    66    36    37   ar
    67    36    68    1
    68    38    40   ar
    69    38    41   ar
    70    39    42    1
    71    40    43   ar
    72    40    69    1
    73    41    44   ar
    74    41    70    1
    75    42    71    1
    76    42    72    1
    77    42    73    1
    78    43    45   ar
    79    43    75    1
    80    44    45   ar
    81    44    76    1
