@<TRIPOS>MOLECULE
IMPHY000791
 58 59 0 0 0
SMALL
GASTEIGER

@<TRIPOS>ATOM
      1 O           8.0622   -3.5950    0.0000 O.3     1  UNL1       -0.5064
      2 O           4.5981   -3.5950    0.0000 O.3     1  UNL1       -0.5064
      3 O           8.9282    2.9050    0.0000 O.3     1  UNL1       -0.5033
      4 O           7.1962    3.9050    0.0000 O.3     1  UNL1       -0.5033
      5 C           6.3301   -1.5950    0.0000 C.ar    1  UNL1       -0.0332
      6 C           6.3301   -0.5950    0.0000 C.3     1  UNL1       -0.0229
      7 C           5.4641   -2.0950    0.0000 C.ar    1  UNL1        0.0014
      8 C           7.1962   -2.0950    0.0000 C.ar    1  UNL1        0.0014
      9 C           7.1962   -0.0950    0.0000 C.3     1  UNL1       -0.0236
     10 C           4.5981   -1.5950    0.0000 C.3     1  UNL1       -0.0055
     11 C           8.0622   -1.5950    0.0000 C.3     1  UNL1       -0.0055
     12 C           7.1962   -3.0950    0.0000 C.ar    1  UNL1        0.1240
     13 C           5.4641   -3.0950    0.0000 C.ar    1  UNL1        0.1240
     14 C           7.1962    0.9050    0.0000 C.ar    1  UNL1       -0.0434
     15 C           6.3301   -3.5950    0.0000 C.ar    1  UNL1        0.0219
     16 C           3.7320   -2.0950    0.0000 C.2     1  UNL1       -0.0809
     17 C           8.9282   -2.0950    0.0000 C.2     1  UNL1       -0.0809
     18 C           8.0622    1.4050    0.0000 C.ar    1  UNL1       -0.0133
     19 C           6.3301    1.4050    0.0000 C.ar    1  UNL1       -0.0549
     20 C           2.8660   -1.5950    0.0000 C.2     1  UNL1       -0.0793
     21 C           9.7942   -1.5950    0.0000 C.2     1  UNL1       -0.0793
     22 C           8.0622    2.4050    0.0000 C.ar    1  UNL1        0.1585
     23 C           6.3301    2.4050    0.0000 C.ar    1  UNL1       -0.0163
     24 C           7.1962    2.9050    0.0000 C.ar    1  UNL1        0.1582
     25 C           2.0000   -2.0950    0.0000 C.3     1  UNL1       -0.0440
     26 C           2.8660   -0.5950    0.0000 C.3     1  UNL1       -0.0440
     27 C          10.6603   -2.0950    0.0000 C.3     1  UNL1       -0.0440
     28 C           9.7942   -0.5950    0.0000 C.3     1  UNL1       -0.0440
     29 H           6.1181   -0.0124    0.0000 H       1  UNL1        0.0317
     30 H           5.7196   -0.7027    0.0000 H       1  UNL1        0.0317
     31 H           7.4082   -0.6776    0.0000 H       1  UNL1        0.0316
     32 H           7.8067    0.0127    0.0000 H       1  UNL1        0.0316
     33 H           4.9966   -1.1200    0.0000 H       1  UNL1        0.0357
     34 H           4.1996   -1.1200    0.0000 H       1  UNL1        0.0357
     35 H           8.4607   -1.1200    0.0000 H       1  UNL1        0.0357
     36 H           7.6636   -1.1200    0.0000 H       1  UNL1        0.0357
     37 H           6.3301   -4.2150    0.0000 H       1  UNL1        0.0691
     38 H           3.7320   -2.7150    0.0000 H       1  UNL1        0.0575
     39 H           8.9282   -2.7150    0.0000 H       1  UNL1        0.0575
     40 H           8.5991    1.0950    0.0000 H       1  UNL1        0.0658
     41 H           5.7932    1.0950    0.0000 H       1  UNL1        0.0621
     42 H           8.0622   -4.2150    0.0000 H       1  UNL1        0.2921
     43 H           4.5981   -4.2150    0.0000 H       1  UNL1        0.2921
     44 H           5.7932    2.7150    0.0000 H       1  UNL1        0.0655
     45 H           3.4860   -0.5950    0.0000 H       1  UNL1        0.0274
     46 H           2.8660    0.0250    0.0000 H       1  UNL1        0.0274
     47 H           1.6900   -1.5581    0.0000 H       1  UNL1        0.0274
     48 H           1.4631   -2.4050    0.0000 H       1  UNL1        0.0274
     49 H           2.3100   -2.6319    0.0000 H       1  UNL1        0.0274
     50 H           2.2460   -0.5950    0.0000 H       1  UNL1        0.0274
     51 H          10.3503   -2.6319    0.0000 H       1  UNL1        0.0274
     52 H          11.1972   -2.4050    0.0000 H       1  UNL1        0.0274
     53 H          10.9703   -1.5581    0.0000 H       1  UNL1        0.0274
     54 H          10.4142   -0.5950    0.0000 H       1  UNL1        0.0274
     55 H           9.7942    0.0250    0.0000 H       1  UNL1        0.0274
     56 H           9.1742   -0.5950    0.0000 H       1  UNL1        0.0274
     57 H           8.9282    3.5250    0.0000 H       1  UNL1        0.2923
     58 H           6.6592    4.2150    0.0000 H       1  UNL1        0.2923
@<TRIPOS>BOND
     1     1    12    1
     2     1    42    1
     3     2    13    1
     4     2    43    1
     5     3    22    1
     6     3    57    1
     7     4    24    1
     8     4    58    1
     9     5     6    1
    10     5     7   ar
    11     5     8   ar
    12     6     9    1
    13     6    29    1
    14     6    30    1
    15     7    10    1
    16     7    13   ar
    17     8    11    1
    18     8    12   ar
    19     9    14    1
    20     9    31    1
    21     9    32    1
    22    10    16    1
    23    10    33    1
    24    10    34    1
    25    11    17    1
    26    11    35    1
    27    11    36    1
    28    12    15   ar
    29    13    15   ar
    30    14    18   ar
    31    14    19   ar
    32    15    37    1
    33    16    20    2
    34    16    38    1
    35    17    21    2
    36    17    39    1
    37    18    22   ar
    38    18    40    1
    39    19    23   ar
    40    19    41    1
    41    20    25    1
    42    20    26    1
    43    21    27    1
    44    21    28    1
    45    22    24   ar
    46    23    24   ar
    47    23    44    1
    48    25    47    1
    49    25    48    1
    50    25    49    1
    51    26    45    1
    52    26    46    1
    53    26    50    1
    54    27    51    1
    55    27    52    1
    56    27    53    1
    57    28    54    1
    58    28    55    1
    59    28    56    1
