@<TRIPOS>MOLECULE
IMPHY000375
 58 60 0 0 0
SMALL
GASTEIGER

@<TRIPOS>ATOM
      1 O           6.0682    0.7500    0.0000 O.3     1  UNL1       -0.4801
      2 O           7.8003    2.7500    0.0000 O.3     1  UNL1       -0.3798
      3 O           6.0682    3.7500    0.0000 O.2     1  UNL1       -0.2890
      4 O           2.5381    0.7258    0.0000 O.3     1  UNL1       -0.5064
      5 O          10.3984   -0.7500    0.0000 O.3     1  UNL1       -0.5065
      6 C           6.9343    1.2500    0.0000 C.3     1  UNL1        0.1581
      7 C           6.9343    2.2500    0.0000 C.3     1  UNL1        0.1583
      8 C           7.8003    0.7500    0.0000 C.ar    1  UNL1       -0.0039
      9 C           5.2022    1.2500    0.0000 C.ar    1  UNL1        0.1390
     10 C           5.2022    2.2500    0.0000 C.ar    1  UNL1        0.0623
     11 C           6.0682    2.7500    0.0000 C.2     1  UNL1        0.1988
     12 C           4.3083    0.7153    0.0000 C.ar    1  UNL1        0.0400
     13 C           7.8003   -0.2500    0.0000 C.ar    1  UNL1       -0.0480
     14 C           4.3083    2.7847    0.0000 C.ar    1  UNL1       -0.0442
     15 C           8.6663    1.2500    0.0000 C.ar    1  UNL1       -0.0515
     16 C           4.3198   -0.2846    0.0000 C.3     1  UNL1       -0.0023
     17 C           8.6663   -0.7500    0.0000 C.ar    1  UNL1       -0.0019
     18 C           3.4022    1.2292    0.0000 C.ar    1  UNL1        0.1238
     19 C           3.4022    2.2708    0.0000 C.ar    1  UNL1       -0.0190
     20 C           9.5323   -0.2500    0.0000 C.ar    1  UNL1        0.1203
     21 C           9.5323    0.7500    0.0000 C.ar    1  UNL1       -0.0195
     22 C           8.6663   -1.7500    0.0000 C.3     1  UNL1       -0.0058
     23 C           3.4597   -0.7946    0.0000 C.2     1  UNL1       -0.0807
     24 C           9.5323   -2.2500    0.0000 C.2     1  UNL1       -0.0809
     25 C           3.4712   -1.7945    0.0000 C.2     1  UNL1       -0.0793
     26 C           9.5323   -3.2500    0.0000 C.2     1  UNL1       -0.0793
     27 C           2.6110   -2.3045    0.0000 C.3     1  UNL1       -0.0440
     28 C           4.3430   -2.2845    0.0000 C.3     1  UNL1       -0.0440
     29 C          10.3984   -3.7500    0.0000 C.3     1  UNL1       -0.0440
     30 C           8.6663   -3.7500    0.0000 C.3     1  UNL1       -0.0440
     31 H           6.9343    0.6300    0.0000 H       1  UNL1        0.0815
     32 H           6.9343    2.8700    0.0000 H       1  UNL1        0.0718
     33 H           7.2634   -0.5600    0.0000 H       1  UNL1        0.0625
     34 H           4.3154    3.4046    0.0000 H       1  UNL1        0.0627
     35 H           8.6663    1.8700    0.0000 H       1  UNL1        0.0623
     36 H           4.5386   -0.8647    0.0000 H       1  UNL1        0.0358
     37 H           4.9291   -0.1699    0.0000 H       1  UNL1        0.0358
     38 H           2.8665    2.5829    0.0000 H       1  UNL1        0.0654
     39 H           7.8003    3.3700    0.0000 H       1  UNL1        0.2105
     40 H          10.0693    1.0600    0.0000 H       1  UNL1        0.0654
     41 H           8.0558   -1.6423    0.0000 H       1  UNL1        0.0357
     42 H           8.4543   -2.3326    0.0000 H       1  UNL1        0.0357
     43 H           2.9192   -0.4908    0.0000 H       1  UNL1        0.0575
     44 H          10.0693   -1.9400    0.0000 H       1  UNL1        0.0575
     45 H           2.0000    1.0338    0.0000 H       1  UNL1        0.2921
     46 H          10.9353   -0.4400    0.0000 H       1  UNL1        0.2921
     47 H           4.0392   -2.8250    0.0000 H       1  UNL1        0.0274
     48 H           4.8835   -2.5882    0.0000 H       1  UNL1        0.0274
     49 H           4.6468   -1.7440    0.0000 H       1  UNL1        0.0274
     50 H           2.2948   -1.7712    0.0000 H       1  UNL1        0.0274
     51 H           2.0777   -2.6207    0.0000 H       1  UNL1        0.0274
     52 H           2.9272   -2.8378    0.0000 H       1  UNL1        0.0274
     53 H           8.3563   -3.2131    0.0000 H       1  UNL1        0.0274
     54 H           8.1294   -4.0600    0.0000 H       1  UNL1        0.0274
     55 H           8.9763   -4.2869    0.0000 H       1  UNL1        0.0274
     56 H          10.0884   -4.2869    0.0000 H       1  UNL1        0.0274
     57 H          10.9353   -4.0600    0.0000 H       1  UNL1        0.0274
     58 H          10.7084   -3.2131    0.0000 H       1  UNL1        0.0274
@<TRIPOS>BOND
     1     1     6    1
     2     1     9    1
     3     7     2    1
     4     2    39    1
     5     3    11    2
     6     4    18    1
     7     4    45    1
     8     5    20    1
     9     5    46    1
    10     6     7    1
    11     6     8    1
    12     6    31    1
    13     7    11    1
    14     7    32    1
    15     8    13   ar
    16     8    15   ar
    17     9    10   ar
    18     9    12   ar
    19    10    11    1
    20    10    14   ar
    21    12    16    1
    22    12    18   ar
    23    13    17   ar
    24    13    33    1
    25    14    19   ar
    26    14    34    1
    27    15    21   ar
    28    15    35    1
    29    16    23    1
    30    16    36    1
    31    16    37    1
    32    17    20   ar
    33    17    22    1
    34    18    19   ar
    35    19    38    1
    36    20    21   ar
    37    21    40    1
    38    22    24    1
    39    22    41    1
    40    22    42    1
    41    23    25    2
    42    23    43    1
    43    24    26    2
    44    24    44    1
    45    25    27    1
    46    25    28    1
    47    26    29    1
    48    26    30    1
    49    27    50    1
    50    27    51    1
    51    27    52    1
    52    28    47    1
    53    28    48    1
    54    28    49    1
    55    29    56    1
    56    29    57    1
    57    29    58    1
    58    30    53    1
    59    30    54    1
    60    30    55    1
