@<TRIPOS>MOLECULE
IMPHY015772
 35 34 0 0 0
SMALL
GASTEIGER

@<TRIPOS>ATOM
      1 O           8.9282    0.7500    0.0000 O.3     1  UNL1       -0.4619
      2 O           8.0622   -0.7500    0.0000 O.2     1  UNL1       -0.2508
      3 C           5.4641    0.7500    0.0000 C.3     1  UNL1       -0.0526
      4 C           4.5981    0.2500    0.0000 C.3     1  UNL1       -0.0531
      5 C           6.3301    0.2500    0.0000 C.3     1  UNL1       -0.0430
      6 C           3.7320    0.7500    0.0000 C.3     1  UNL1       -0.0533
      7 C           7.1962    0.7500    0.0000 C.3     1  UNL1        0.0449
      8 C           2.8660    0.2500    0.0000 C.3     1  UNL1       -0.0559
      9 C           2.0000    0.7500    0.0000 C.3     1  UNL1       -0.0653
     10 C           8.0622    0.2500    0.0000 C.2     1  UNL1        0.3073
     11 C           9.7942    0.2500    0.0000 C.3     1  UNL1        0.0975
     12 C          10.6603    0.7500    0.0000 C.3     1  UNL1       -0.0280
     13 C           9.7942   -0.7500    0.0000 C.3     1  UNL1       -0.0280
     14 H           5.8626    1.2250    0.0000 H       1  UNL1        0.0265
     15 H           5.0656    1.2250    0.0000 H       1  UNL1        0.0265
     16 H           4.1996   -0.2249    0.0000 H       1  UNL1        0.0265
     17 H           4.9966   -0.2249    0.0000 H       1  UNL1        0.0265
     18 H           5.9316   -0.2249    0.0000 H       1  UNL1        0.0270
     19 H           6.7287   -0.2249    0.0000 H       1  UNL1        0.0270
     20 H           4.1306    1.2250    0.0000 H       1  UNL1        0.0265
     21 H           3.3335    1.2250    0.0000 H       1  UNL1        0.0265
     22 H           7.5947    1.2250    0.0000 H       1  UNL1        0.0377
     23 H           6.7976    1.2250    0.0000 H       1  UNL1        0.0377
     24 H           2.4675   -0.2249    0.0000 H       1  UNL1        0.0263
     25 H           3.2646   -0.2249    0.0000 H       1  UNL1        0.0263
     26 H           2.3100    1.2869    0.0000 H       1  UNL1        0.0230
     27 H           1.4631    1.0600    0.0000 H       1  UNL1        0.0230
     28 H           1.6900    0.2131    0.0000 H       1  UNL1        0.0230
     29 H           9.2573   -0.0600    0.0000 H       1  UNL1        0.0728
     30 H          10.9703    0.2131    0.0000 H       1  UNL1        0.0265
     31 H          11.1972    1.0600    0.0000 H       1  UNL1        0.0265
     32 H          10.3503    1.2869    0.0000 H       1  UNL1        0.0265
     33 H           9.1742   -0.7500    0.0000 H       1  UNL1        0.0265
     34 H           9.7942   -1.3700    0.0000 H       1  UNL1        0.0265
     35 H          10.4142   -0.7500    0.0000 H       1  UNL1        0.0265
@<TRIPOS>BOND
     1     1    10    1
     2     1    11    1
     3     2    10    2
     4     3     4    1
     5     3     5    1
     6     3    14    1
     7     3    15    1
     8     4     6    1
     9     4    16    1
    10     4    17    1
    11     5     7    1
    12     5    18    1
    13     5    19    1
    14     6     8    1
    15     6    20    1
    16     6    21    1
    17     7    10    1
    18     7    22    1
    19     7    23    1
    20     8     9    1
    21     8    24    1
    22     8    25    1
    23     9    26    1
    24     9    27    1
    25     9    28    1
    26    11    12    1
    27    11    13    1
    28    11    29    1
    29    12    30    1
    30    12    31    1
    31    12    32    1
    32    13    33    1
    33    13    34    1
    34    13    35    1
