@<TRIPOS>MOLECULE
IMPHY004274
 65 68 0 0 0
SMALL
GASTEIGER

@<TRIPOS>ATOM
      1 O           5.1350   -3.2709    0.0000 O.3     1  UNL1       -0.3313
      2 O           6.8671   -3.2709    0.0000 O.3     1  UNL1       -0.4572
      3 O           5.1350   -6.2709    0.0000 O.3     1  UNL1       -0.3864
      4 O           3.4030   -5.2709    0.0000 O.3     1  UNL1       -0.3865
      5 O           6.8671   -5.2709    0.0000 O.3     1  UNL1       -0.3829
      6 O           2.5369   -3.7709    0.0000 O.3     1  UNL1       -0.3924
      7 O           5.1350   -2.2709    0.0000 O.3     1  UNL1       -0.5031
      8 O           9.5650    1.6700    0.0000 O.co2   1  UNL1       -0.5435
      9 O           8.0650    2.5360    0.0000 O.co2   1  UNL1       -0.5435
     10 O           6.9832    5.9916    0.0000 O.3     1  UNL1       -0.4793
     11 OXT         5.3369    6.5297    0.0000 O.2     1  UNL1       -0.2489
     12 O           2.7585    4.2162    0.0000 O.3     1  UNL1       -0.4763
     13 OXT         3.1157    2.5214    0.0000 O.2     1  UNL1       -0.2437
     14 N           7.0763    0.7009    0.0000 N.2     1  UNL1       -0.1888
     15 N           4.7156    4.6286    0.0000 N.pl3   1  UNL1       -0.3256
     16 C           5.1350   -5.2709    0.0000 C.3     1  UNL1        0.1152
     17 C           4.2690   -4.7709    0.0000 C.3     1  UNL1        0.1120
     18 C           6.0010   -4.7709    0.0000 C.3     1  UNL1        0.1454
     19 C           4.2690   -3.7709    0.0000 C.3     1  UNL1        0.1140
     20 C           6.0010   -3.7709    0.0000 C.3     1  UNL1        0.2310
     21 C           8.0650    0.8040    0.0000 C.3     1  UNL1        0.2042
     22 C           8.4701   -0.1038    0.0000 C.3     1  UNL1        0.0470
     23 C           7.7331   -0.7709    0.0000 C.ar    1  UNL1        0.0342
     24 C           6.8671   -0.2709    0.0000 C.ar    1  UNL1        0.2154
     25 C           3.4030   -3.2709    0.0000 C.3     1  UNL1        0.0731
     26 C           6.8671   -2.2709    0.0000 C.ar    1  UNL1        0.1659
     27 C           7.7331   -1.7709    0.0000 C.ar    1  UNL1       -0.0065
     28 C           6.0010   -0.7709    0.0000 C.ar    1  UNL1        0.0551
     29 C           6.0010   -1.7709    0.0000 C.ar    1  UNL1        0.1649
     30 C           6.4084    1.4452    0.0000 C.2     1  UNL1        0.1726
     31 C           8.5650    1.6700    0.0000 C.2     1  UNL1        0.1108
     32 C           6.7191    2.3957    0.0000 C.2     1  UNL1        0.0053
     33 C           6.0512    3.1400    0.0000 C.2     1  UNL1       -0.0375
     34 C           6.3619    4.0906    0.0000 C.3     1  UNL1        0.0014
     35 CA          5.6941    4.8348    0.0000 C.3     1  UNL1        0.1224
     36 C           5.0727    2.9338    0.0000 C.2     1  UNL1       -0.0304
     37 CA          4.4049    3.6781    0.0000 C.2     1  UNL1        0.1130
     38 C           6.0047    5.7854    0.0000 C.2     1  UNL1        0.3255
     39 C           3.4264    3.4719    0.0000 C.2     1  UNL1        0.3508
     40 H           5.6720   -5.5809    0.0000 H       1  UNL1        0.0648
     41 H           4.2690   -5.3909    0.0000 H       1  UNL1        0.0647
     42 H           6.5380   -4.4609    0.0000 H       1  UNL1        0.0683
     43 H           4.2690   -3.1509    0.0000 H       1  UNL1        0.0647
     44 H           6.0010   -3.1509    0.0000 H       1  UNL1        0.1084
     45 H           7.7275    1.3241    0.0000 H       1  UNL1        0.1138
     46 H           8.8355   -0.6047    0.0000 H       1  UNL1        0.0384
     47 H           9.0066    0.2069    0.0000 H       1  UNL1        0.0384
     48 H           3.8015   -2.7960    0.0000 H       1  UNL1        0.0584
     49 H           3.0044   -2.7960    0.0000 H       1  UNL1        0.0584
     50 H           8.2700   -2.0809    0.0000 H       1  UNL1        0.0660
     51 H           5.4641   -0.4609    0.0000 H       1  UNL1        0.0722
     52 H           4.5981   -6.5809    0.0000 H       1  UNL1        0.2100
     53 H           3.4030   -5.8909    0.0000 H       1  UNL1        0.2100
     54 H           6.8671   -5.8909    0.0000 H       1  UNL1        0.2102
     55 H           5.8018    1.3174    0.0000 H       1  UNL1        0.1376
     56 H           7.3258    2.5236    0.0000 H       1  UNL1        0.0679
     57 H           2.0000   -3.4609    0.0000 H       1  UNL1        0.2095
     58 H           6.9088    3.7985    0.0000 H       1  UNL1        0.0337
     59 H           6.7445    4.5784    0.0000 H       1  UNL1        0.0337
     60 HA          5.2800    5.2963    0.0000 H       1  UNL1        0.0617
     61 H           4.8801    2.3445    0.0000 H       1  UNL1        0.0641
     62 H           4.5981   -1.9609    0.0000 H       1  UNL1        0.2923
     63 H           4.3015    5.0901    0.0000 H       1  UNL1        0.1471
     64 H           7.1758    6.5809    0.0000 H       1  UNL1        0.2951
     65 H           2.1519    4.0883    0.0000 H       1  UNL1        0.2954
@<TRIPOS>UNITY_ATOM_ATTR
8 1
charge -1
14 1
charge 1
@<TRIPOS>BOND
     1     1    19    1
     2     1    20    1
     3    20     2    1
     4     2    26    1
     5    16     3    1
     6     3    52    1
     7    17     4    1
     8     4    53    1
     9    18     5    1
    10     5    54    1
    11     6    25    1
    12     6    57    1
    13     7    29    1
    14     7    62    1
    15     8    31   ar
    16     9    31   ar
    17    10    38    1
    18    10    64    1
    19    11    38    2
    20    12    39    1
    21    12    65    1
    22    13    39    2
    23    14    21    1
    24    14    24    1
    25    14    30    2
    26    15    35    1
    27    15    37    1
    28    15    63    1
    29    16    17    1
    30    16    18    1
    31    16    40    1
    32    17    19    1
    33    17    41    1
    34    18    20    1
    35    18    42    1
    36    19    25    1
    37    19    43    1
    38    20    44    1
    39    21    22    1
    40    21    31    1
    41    21    45    1
    42    22    23    1
    43    22    46    1
    44    22    47    1
    45    23    24   ar
    46    23    27   ar
    47    24    28   ar
    48    25    48    1
    49    25    49    1
    50    26    27   ar
    51    26    29   ar
    52    27    50    1
    53    28    29   ar
    54    28    51    1
    55    30    32    1
    56    30    55    1
    57    32    33    2
    58    32    56    1
    59    33    34    1
    60    33    36    1
    61    34    35    1
    62    34    58    1
    63    34    59    1
    64    35    38    1
    65    35    60    1
    66    36    37    2
    67    36    61    1
    68    37    39    1
