@<TRIPOS>MOLECULE
IMPHY010658
 32 35 0 0 0
SMALL
GASTEIGER

@<TRIPOS>ATOM
      1 O           8.0901    0.1203    0.0000 O.3     1  UNL1       -0.4743
      2 O           4.5981    0.1550    0.0000 O.3     1  UNL1       -0.4685
      3 O           4.5981    2.1550    0.0000 O.3     1  UNL1       -0.4653
      4 O           8.0785    3.1896    0.0000 O.2     1  UNL1       -0.2910
      5 O           6.3301    3.1550    0.0000 O.3     1  UNL1       -0.2830
      6 O           6.3301   -2.8450    0.0000 O.3     1  UNL1       -0.2868
      7 O           2.8660   -2.8450    0.0000 O.3     1  UNL1       -0.4713
      8 C           8.9962    0.6342    0.0000 C.3     1  UNL1        0.1958
      9 C           8.9962    1.6758    0.0000 C.3     1  UNL1        0.1174
     10 C           7.1962    0.6550    0.0000 C.ar    1  UNL1        0.1441
     11 C           7.1962    1.6550    0.0000 C.ar    1  UNL1        0.1106
     12 C           6.3301    0.1550    0.0000 C.ar    1  UNL1        0.0535
     13 C           8.0901    2.1897    0.0000 C.2     1  UNL1        0.1832
     14 C           6.3301   -0.8450    0.0000 C.3     1  UNL1        0.0621
     15 C           9.8603    0.1309    0.0000 C.ar    1  UNL1        0.0176
     16 C           5.4641    0.6550    0.0000 C.ar    1  UNL1        0.1748
     17 C           6.3301    2.1550    0.0000 C.ar    1  UNL1        0.2379
     18 C           5.4641    1.6550    0.0000 C.ar    1  UNL1        0.2111
     19 C           5.4641   -1.3450    0.0000 C.ar    1  UNL1        0.0215
     20 C          10.7282    0.6275    0.0000 C.ar    1  UNL1       -0.0008
     21 C           9.8564   -0.8691    0.0000 C.ar    1  UNL1       -0.0008
     22 C           5.4641   -2.3450    0.0000 C.ar    1  UNL1        0.1951
     23 C           4.5981   -0.8450    0.0000 C.ar    1  UNL1        0.0023
     24 C          11.5923    0.1242    0.0000 C.ar    1  UNL1       -0.0002
     25 C          10.7205   -1.3725    0.0000 C.ar    1  UNL1       -0.0002
     26 C          11.5884   -0.8758    0.0000 C.ar    1  UNL1       -0.0000
     27 C           4.5981   -2.8450    0.0000 C.ar    1  UNL1        0.0786
     28 C           3.7321   -1.3450    0.0000 C.ar    1  UNL1        0.0368
     29 C           3.7321   -2.3450    0.0000 C.ar    1  UNL1        0.1419
     30 C           3.7321    0.6550    0.0000 C.3     1  UNL1        0.2526
     31 C           4.5981    3.1550    0.0000 C.3     1  UNL1        0.2528
     32 C           2.0000   -2.3450    0.0000 C.3     1  UNL1        0.2525
@<TRIPOS>BOND
     1     1     8    1
     2     1    10    1
     3     2    16    1
     4     2    30    1
     5     3    18    1
     6     3    31    1
     7     4    13    2
     8     5    17    1
     9     6    22    1
    10     7    29    1
    11     7    32    1
    12     8     9    1
    13     8    15    1
    14     9    13    1
    15    10    11   ar
    16    10    12   ar
    17    11    13    1
    18    11    17   ar
    19    12    14    1
    20    12    16   ar
    21    14    19    1
    22    15    20   ar
    23    15    21   ar
    24    16    18   ar
    25    17    18   ar
    26    19    22   ar
    27    19    23   ar
    28    20    24   ar
    29    21    25   ar
    30    22    27   ar
    31    23    28   ar
    32    24    26   ar
    33    25    26   ar
    34    27    29   ar
    35    28    29   ar
