@<TRIPOS>MOLECULE
IMPHY004040
 106 110 0 0 0
SMALL
GASTEIGER

@<TRIPOS>ATOM
      1 O           5.1643    1.8253    0.0000 O.3     1  UNL1       -0.3915
      2 O           6.8671   -4.3649    0.0000 O.3     1  UNL1       -0.3449
      3 O           7.1728    4.2170    0.0000 O.3     1  UNL1       -0.3886
      4 O           5.1350   -4.3649    0.0000 O.3     1  UNL1       -0.3405
      5 O           6.8671   -6.3649    0.0000 O.3     1  UNL1       -0.3841
      6 O           5.1350   -7.3649    0.0000 O.3     1  UNL1       -0.3864
      7 O           3.4030   -6.3649    0.0000 O.3     1  UNL1       -0.3865
      8 O           2.5369   -4.8649    0.0000 O.3     1  UNL1       -0.3924
      9 C           7.7681    0.3353    0.0000 C.3     1  UNL1       -0.0229
     10 C           7.7643    1.3353    0.0000 C.3     1  UNL1       -0.0209
     11 C           6.9040   -0.1680    0.0000 C.3     1  UNL1       -0.0271
     12 C           6.8920   -1.2096    0.0000 C.3     1  UNL1       -0.0252
     13 C           6.8963    1.8320    0.0000 C.3     1  UNL1       -0.0036
     14 C           7.7920   -1.7339    0.0000 C.3     1  UNL1       -0.0278
     15 C           8.6801   -0.1680    0.0000 C.3     1  UNL1       -0.0466
     16 C           6.0361    0.3286    0.0000 C.3     1  UNL1       -0.0227
     17 C           7.1018    2.8046    0.0000 C.3     1  UNL1       -0.0067
     18 C           6.0322    1.3286    0.0000 C.3     1  UNL1        0.0592
     19 C           8.4987    2.0052    0.0000 C.3     1  UNL1       -0.0464
     20 C           8.6921   -1.2096    0.0000 C.3     1  UNL1       -0.0486
     21 C           7.8046   -2.8188    0.0000 C.3     1  UNL1       -0.0052
     22 C           8.0901    2.9114    0.0000 C.3     1  UNL1       -0.0467
     23 C           5.9421   -1.7339    0.0000 C.3     1  UNL1       -0.0447
     24 C           8.7522    0.5128    0.0000 C.3     1  UNL1       -0.0588
     25 C           8.7497    1.1655    0.0000 C.3     1  UNL1       -0.0587
     26 C           6.0279   -0.7062    0.0000 C.3     1  UNL1       -0.0590
     27 C           6.8671   -3.3649    0.0000 C.3     1  UNL1        0.0672
     28 C           5.9295   -2.8188    0.0000 C.3     1  UNL1       -0.0255
     29 C           6.4311    3.5463    0.0000 C.3     1  UNL1        0.0668
     30 C           8.8046   -2.8111    0.0000 C.3     1  UNL1       -0.0572
     31 C           8.3113   -3.6809    0.0000 C.3     1  UNL1       -0.0572
     32 C           5.7604    4.2880    0.0000 C.3     1  UNL1       -0.0206
     33 C           5.6894    2.8756    0.0000 C.3     1  UNL1       -0.0358
     34 C           6.0674    5.2397    0.0000 C.3     1  UNL1       -0.0319
     35 C           6.0010   -4.8649    0.0000 C.3     1  UNL1        0.1882
     36 C           6.0010   -5.8649    0.0000 C.3     1  UNL1        0.1341
     37 C           5.3966    5.9815    0.0000 C.2     1  UNL1       -0.0852
     38 C           5.1350   -6.3649    0.0000 C.3     1  UNL1        0.1141
     39 C           4.2690   -4.8649    0.0000 C.3     1  UNL1        0.1130
     40 C           4.2690   -5.8649    0.0000 C.3     1  UNL1        0.1119
     41 C           5.7036    6.9332    0.0000 C.2     1  UNL1       -0.0796
     42 C           3.4030   -4.3649    0.0000 C.3     1  UNL1        0.0730
     43 C           5.0329    7.6749    0.0000 C.3     1  UNL1       -0.0440
     44 C           6.6814    7.1432    0.0000 C.3     1  UNL1       -0.0440
     45 H           7.6385   -0.5958    0.0000 H       1  UNL1        0.0312
     46 H           6.2074    2.3298    0.0000 H       1  UNL1        0.0335
     47 H           8.5314   -2.1532    0.0000 H       1  UNL1        0.0312
     48 H           9.2921   -0.2670    0.0000 H       1  UNL1        0.0271
     49 H           8.8824    0.4181    0.0000 H       1  UNL1        0.0271
     50 H           5.4251    0.4340    0.0000 H       1  UNL1        0.0293
     51 H           5.8263   -0.2548    0.0000 H       1  UNL1        0.0293
     52 H           7.4044    3.5989    0.0000 H       1  UNL1        0.0332
     53 H           5.4965    1.0166    0.0000 H       1  UNL1        0.0596
     54 H           8.8661    1.5058    0.0000 H       1  UNL1        0.0271
     55 H           9.0340    2.3181    0.0000 H       1  UNL1        0.0271
     56 H           8.9079   -1.7908    0.0000 H       1  UNL1        0.0268
     57 H           9.3017   -1.0964    0.0000 H       1  UNL1        0.0268
     58 H           8.6790    3.1055    0.0000 H       1  UNL1        0.0269
     59 H           7.9590    3.5174    0.0000 H       1  UNL1        0.0269
     60 H           5.7398   -1.1478    0.0000 H       1  UNL1        0.0271
     61 H           5.3300   -1.8329    0.0000 H       1  UNL1        0.0271
     62 H           8.8623   -0.0974    0.0000 H       1  UNL1        0.0235
     63 H           9.3624    0.6228    0.0000 H       1  UNL1        0.0235
     64 H           8.6422    1.1229    0.0000 H       1  UNL1        0.0235
     65 H           8.6444    0.5545    0.0000 H       1  UNL1        0.0235
     66 H           9.3607    1.0602    0.0000 H       1  UNL1        0.0235
     67 H           8.8550    1.7765    0.0000 H       1  UNL1        0.0235
     68 H           6.3400   -0.1705    0.0000 H       1  UNL1        0.0235
     69 H           5.4922   -0.3942    0.0000 H       1  UNL1        0.0235
     70 H           5.7158   -1.2420    0.0000 H       1  UNL1        0.0235
     71 H           7.4046   -3.6739    0.0000 H       1  UNL1        0.0602
     72 H           5.3199   -2.7056    0.0000 H       1  UNL1        0.0290
     73 H           5.7137   -3.4000    0.0000 H       1  UNL1        0.0290
     74 H           8.8094   -3.4311    0.0000 H       1  UNL1        0.0236
     75 H           9.4246   -2.8063    0.0000 H       1  UNL1        0.0236
     76 H           8.7998   -2.1911    0.0000 H       1  UNL1        0.0236
     77 H           7.7767   -3.9951    0.0000 H       1  UNL1        0.0236
     78 H           8.6254   -4.2155    0.0000 H       1  UNL1        0.0236
     79 H           8.8458   -3.3668    0.0000 H       1  UNL1        0.0236
     80 H           4.6286    1.5132    0.0000 H       1  UNL1        0.2098
     81 H           5.2123    4.5779    0.0000 H       1  UNL1        0.0296
     82 H           5.3797    3.7987    0.0000 H       1  UNL1        0.0296
     83 H           5.2735    3.3355    0.0000 H       1  UNL1        0.0257
     84 H           5.2295    2.4598    0.0000 H       1  UNL1        0.0257
     85 H           6.1052    2.4157    0.0000 H       1  UNL1        0.0257
     86 H           7.0426    4.8232    0.0000 H       1  UNL1        0.2102
     87 H           6.6154    4.9498    0.0000 H       1  UNL1        0.0308
     88 H           6.4480    5.7291    0.0000 H       1  UNL1        0.0308
     89 H           6.0010   -4.2449    0.0000 H       1  UNL1        0.0937
     90 H           6.0010   -6.4849    0.0000 H       1  UNL1        0.0671
     91 H           4.7905    5.8513    0.0000 H       1  UNL1        0.0571
     92 H           4.5981   -6.6749    0.0000 H       1  UNL1        0.0648
     93 H           4.2690   -4.2449    0.0000 H       1  UNL1        0.0647
     94 H           4.2690   -6.4849    0.0000 H       1  UNL1        0.0647
     95 H           6.8671   -6.9849    0.0000 H       1  UNL1        0.2101
     96 H           3.8015   -3.8900    0.0000 H       1  UNL1        0.0584
     97 H           3.0044   -3.8900    0.0000 H       1  UNL1        0.0584
     98 H           4.5981   -7.6749    0.0000 H       1  UNL1        0.2100
     99 H           3.4030   -6.9849    0.0000 H       1  UNL1        0.2100
    100 H           5.4928    8.0907    0.0000 H       1  UNL1        0.0274
    101 H           4.6171    8.1348    0.0000 H       1  UNL1        0.0274
    102 H           4.5731    7.2591    0.0000 H       1  UNL1        0.0274
    103 H           6.8116    6.5370    0.0000 H       1  UNL1        0.0274
    104 H           7.2875    7.2734    0.0000 H       1  UNL1        0.0274
    105 H           6.5512    7.7493    0.0000 H       1  UNL1        0.0274
    106 H           2.0000   -4.5549    0.0000 H       1  UNL1        0.2095
@<TRIPOS>BOND
     1    18     1    1
     2     1    80    1
     3    27     2    1
     4    35     2    1
     5    29     3    1
     6     3    86    1
     7     4    35    1
     8     4    39    1
     9    36     5    1
    10     5    95    1
    11    38     6    1
    12     6    98    1
    13    40     7    1
    14     7    99    1
    15     8    42    1
    16     8   106    1
    17     9    10    1
    18     9    11    1
    19     9    15    1
    20     9    24    1
    21    10    13    1
    22    10    19    1
    23    10    25    1
    24    11    12    1
    25    11    16    1
    26    11    45    1
    27    12    14    1
    28    12    23    1
    29    12    26    1
    30    13    17    1
    31    13    18    1
    32    13    46    1
    33    14    20    1
    34    14    21    1
    35    14    47    1
    36    15    20    1
    37    15    48    1
    38    15    49    1
    39    16    18    1
    40    16    50    1
    41    16    51    1
    42    17    22    1
    43    17    29    1
    44    17    52    1
    45    18    53    1
    46    19    22    1
    47    19    54    1
    48    19    55    1
    49    20    56    1
    50    20    57    1
    51    21    27    1
    52    21    30    1
    53    21    31    1
    54    22    58    1
    55    22    59    1
    56    23    28    1
    57    23    60    1
    58    23    61    1
    59    24    62    1
    60    24    63    1
    61    24    64    1
    62    25    65    1
    63    25    66    1
    64    25    67    1
    65    26    68    1
    66    26    69    1
    67    26    70    1
    68    27    28    1
    69    27    71    1
    70    28    72    1
    71    28    73    1
    72    29    32    1
    73    29    33    1
    74    30    74    1
    75    30    75    1
    76    30    76    1
    77    31    77    1
    78    31    78    1
    79    31    79    1
    80    32    34    1
    81    32    81    1
    82    32    82    1
    83    33    83    1
    84    33    84    1
    85    33    85    1
    86    34    37    1
    87    34    87    1
    88    34    88    1
    89    35    36    1
    90    35    89    1
    91    36    38    1
    92    36    90    1
    93    37    41    2
    94    37    91    1
    95    38    40    1
    96    38    92    1
    97    39    40    1
    98    39    42    1
    99    39    93    1
   100    40    94    1
   101    41    43    1
   102    41    44    1
   103    42    96    1
   104    42    97    1
   105    43   100    1
   106    43   101    1
   107    43   102    1
   108    44   103    1
   109    44   104    1
   110    44   105    1
