@<TRIPOS>MOLECULE
IMPHY001563
 35 36 0 0 0
SMALL
GASTEIGER

@<TRIPOS>ATOM
      1 O           4.2690    0.1550    0.0000 O.3     1  UNL1       -0.3339
      2 O           6.0010    0.1550    0.0000 O.3     1  UNL1       -0.4540
      3 O           4.2690   -2.8450    0.0000 O.3     1  UNL1       -0.3864
      4 O           2.5369   -1.8450    0.0000 O.3     1  UNL1       -0.3866
      5 O           6.0010   -1.8450    0.0000 O.3     1  UNL1       -0.3829
      6 O           8.5991    1.6550    0.0000 O.co2   1  UNL1       -0.5759
      7 O           7.7331    0.1550    0.0000 O.2     1  UNL1        0.0416
      8 N           7.7331    1.1550    0.0000 N.pl3   1  UNL1        0.0834
      9 C           4.2690   -1.8450    0.0000 C.3     1  UNL1        0.1151
     10 C           3.4030   -1.3450    0.0000 C.3     1  UNL1        0.1096
     11 C           5.1350   -1.3450    0.0000 C.3     1  UNL1        0.1454
     12 C           3.4030   -0.3450    0.0000 C.3     1  UNL1        0.0883
     13 C           5.1350   -0.3450    0.0000 C.3     1  UNL1        0.2310
     14 C           2.5369    0.1550    0.0000 C.3     1  UNL1       -0.0360
     15 C           6.0010    1.1550    0.0000 C.ar    1  UNL1        0.2006
     16 C           6.8671    1.6550    0.0000 C.ar    1  UNL1        0.3143
     17 C           5.1350    1.6550    0.0000 C.ar    1  UNL1       -0.0130
     18 C           6.8671    2.6550    0.0000 C.ar    1  UNL1        0.0194
     19 C           5.1350    2.6550    0.0000 C.ar    1  UNL1       -0.0579
     20 C           6.0010    3.1550    0.0000 C.ar    1  UNL1       -0.0551
     21 H           4.8059   -2.1550    0.0000 H       1  UNL1        0.0648
     22 H           3.4030   -1.9650    0.0000 H       1  UNL1        0.0646
     23 H           5.6720   -1.0350    0.0000 H       1  UNL1        0.0683
     24 H           3.4030    0.2750    0.0000 H       1  UNL1        0.0621
     25 H           5.1350    0.2750    0.0000 H       1  UNL1        0.1084
     26 H           2.8469    0.6919    0.0000 H       1  UNL1        0.0255
     27 H           2.0000    0.4650    0.0000 H       1  UNL1        0.0255
     28 H           2.2269   -0.3819    0.0000 H       1  UNL1        0.0255
     29 H           3.7320   -3.1550    0.0000 H       1  UNL1        0.2100
     30 H           2.0000   -1.5350    0.0000 H       1  UNL1        0.2100
     31 H           6.0010   -2.4650    0.0000 H       1  UNL1        0.2102
     32 H           4.5981    1.3450    0.0000 H       1  UNL1        0.0656
     33 H           7.4040    2.9650    0.0000 H       1  UNL1        0.0686
     34 H           4.5981    2.9650    0.0000 H       1  UNL1        0.0619
     35 H           6.0010    3.7750    0.0000 H       1  UNL1        0.0620
@<TRIPOS>UNITY_ATOM_ATTR
6 1
charge -1
8 1
charge 1
@<TRIPOS>BOND
     1     1    12    1
     2     1    13    1
     3    13     2    1
     4     2    15    1
     5     9     3    1
     6     3    29    1
     7    10     4    1
     8     4    30    1
     9    11     5    1
    10     5    31    1
    11     6     8    1
    12     7     8    2
    13     8    16    1
    14     9    10    1
    15     9    11    1
    16     9    21    1
    17    10    12    1
    18    10    22    1
    19    11    13    1
    20    11    23    1
    21    12    14    1
    22    12    24    1
    23    13    25    1
    24    14    26    1
    25    14    27    1
    26    14    28    1
    27    15    16   ar
    28    15    17   ar
    29    16    18   ar
    30    17    19   ar
    31    17    32    1
    32    18    20   ar
    33    18    33    1
    34    19    20   ar
    35    19    34    1
    36    20    35    1
