@<TRIPOS>MOLECULE
IMPHY013172
 39 39 0 0 0
SMALL
GASTEIGER

@<TRIPOS>ATOM
      1 O           2.0000   -1.0094    0.0000 O.2     1  UNL1       -0.2924
      2 O           7.2242   -0.7306    0.0000 O.2     1  UNL1       -0.2977
      3 C           4.6261    0.7694    0.0000 C.3     1  UNL1       -0.0159
      4 C           3.7601    0.2694    0.0000 C.3     1  UNL1       -0.0179
      5 C           3.7601   -0.7306    0.0000 C.2     1  UNL1       -0.0054
      6 C           5.4921    0.2694    0.0000 C.3     1  UNL1       -0.0396
      7 C           4.5691   -1.3184    0.0000 C.2     1  UNL1       -0.0657
      8 C           4.2601   -2.2694    0.0000 C.3     1  UNL1       -0.0243
      9 C           3.2601   -2.2694    0.0000 C.3     1  UNL1        0.0138
     10 C           2.9511   -1.3184    0.0000 C.2     1  UNL1        0.1595
     11 C           4.6261    1.7694    0.0000 C.2     1  UNL1       -0.0763
     12 C           6.3582    0.7694    0.0000 C.3     1  UNL1        0.0061
     13 C           5.5202   -1.0094    0.0000 C.3     1  UNL1       -0.0431
     14 C           5.4921    2.2694    0.0000 C.3     1  UNL1       -0.0438
     15 C           7.2242    0.2694    0.0000 C.2     1  UNL1        0.1303
     16 C           3.7601    2.2694    0.0000 C.2     1  UNL1       -0.0994
     17 C           8.0902    0.7694    0.0000 C.3     1  UNL1       -0.0061
     18 H           5.1630    1.0794    0.0000 H       1  UNL1        0.0349
     19 H           3.5480    0.8520    0.0000 H       1  UNL1        0.0320
     20 H           3.1495    0.1618    0.0000 H       1  UNL1        0.0320
     21 H           5.0936   -0.2055    0.0000 H       1  UNL1        0.0275
     22 H           5.8906   -0.2055    0.0000 H       1  UNL1        0.0275
     23 H           4.1953   -2.8860    0.0000 H       1  UNL1        0.0314
     24 H           4.8665   -2.3983    0.0000 H       1  UNL1        0.0314
     25 H           2.6536   -2.3983    0.0000 H       1  UNL1        0.0348
     26 H           3.3249   -2.8860    0.0000 H       1  UNL1        0.0348
     27 H           6.7567    1.2444    0.0000 H       1  UNL1        0.0342
     28 H           5.9596    1.2444    0.0000 H       1  UNL1        0.0342
     29 H           5.7117   -1.5990    0.0000 H       1  UNL1        0.0275
     30 H           6.1098   -0.8178    0.0000 H       1  UNL1        0.0275
     31 H           5.3286   -0.4197    0.0000 H       1  UNL1        0.0275
     32 H           5.8021    1.7325    0.0000 H       1  UNL1        0.0274
     33 H           6.0291    2.5794    0.0000 H       1  UNL1        0.0274
     34 H           5.1821    2.8064    0.0000 H       1  UNL1        0.0274
     35 H           3.7601    2.8894    0.0000 H       1  UNL1        0.0534
     36 H           3.2231    1.9594    0.0000 H       1  UNL1        0.0534
     37 H           8.4002    0.2325    0.0000 H       1  UNL1        0.0306
     38 H           8.6271    1.0794    0.0000 H       1  UNL1        0.0306
     39 H           7.7802    1.3064    0.0000 H       1  UNL1        0.0306
@<TRIPOS>BOND
     1     1    10    2
     2     2    15    2
     3     3     4    1
     4     3     6    1
     5     3    11    1
     6     3    18    1
     7     4     5    1
     8     4    19    1
     9     4    20    1
    10     5     7    2
    11     5    10    1
    12     6    12    1
    13     6    21    1
    14     6    22    1
    15     7     8    1
    16     7    13    1
    17     8     9    1
    18     8    23    1
    19     8    24    1
    20     9    10    1
    21     9    25    1
    22     9    26    1
    23    11    14    1
    24    11    16    2
    25    12    15    1
    26    12    27    1
    27    12    28    1
    28    13    29    1
    29    13    30    1
    30    13    31    1
    31    14    32    1
    32    14    33    1
    33    14    34    1
    34    15    17    1
    35    16    35    1
    36    16    36    1
    37    17    37    1
    38    17    38    1
    39    17    39    1
