@<TRIPOS>MOLECULE
IMPHY017461
 22 21 0 0 0
SMALL
GASTEIGER

@<TRIPOS>ATOM
      1 O           2.8660    0.2500    0.0000 O.3     1  UNL1       -0.4679
      2 O           6.3301    1.2500    0.0000 O.2     1  UNL1       -0.2974
      3 O           3.7320   -1.2500    0.0000 O.2     1  UNL1       -0.2509
      4 C           5.4641   -0.2500    0.0000 C.3     1  UNL1        0.0159
      5 C           4.5981    0.2500    0.0000 C.3     1  UNL1        0.0516
      6 C           6.3301    0.2500    0.0000 C.2     1  UNL1        0.1336
      7 C           7.1962   -0.2500    0.0000 C.3     1  UNL1        0.0030
      8 C           8.0622    0.2500    0.0000 C.3     1  UNL1       -0.0586
      9 C           3.7320   -0.2500    0.0000 C.2     1  UNL1        0.3072
     10 C           2.0000   -0.2500    0.0000 C.3     1  UNL1        0.0817
     11 H           5.0656   -0.7249    0.0000 H       1  UNL1        0.0347
     12 H           5.8626   -0.7249    0.0000 H       1  UNL1        0.0347
     13 H           4.9966    0.7249    0.0000 H       1  UNL1        0.0382
     14 H           4.1996    0.7249    0.0000 H       1  UNL1        0.0382
     15 H           6.7976   -0.7249    0.0000 H       1  UNL1        0.0339
     16 H           7.5947   -0.7249    0.0000 H       1  UNL1        0.0339
     17 H           8.3722   -0.2869    0.0000 H       1  UNL1        0.0234
     18 H           8.5991    0.5600    0.0000 H       1  UNL1        0.0234
     19 H           7.7522    0.7869    0.0000 H       1  UNL1        0.0234
     20 H           1.6900    0.2869    0.0000 H       1  UNL1        0.0661
     21 H           1.4631   -0.5600    0.0000 H       1  UNL1        0.0661
     22 H           2.3100   -0.7869    0.0000 H       1  UNL1        0.0661
@<TRIPOS>BOND
     1     1     9    1
     2     1    10    1
     3     2     6    2
     4     3     9    2
     5     4     5    1
     6     4     6    1
     7     4    11    1
     8     4    12    1
     9     5     9    1
    10     5    13    1
    11     5    14    1
    12     6     7    1
    13     7     8    1
    14     7    15    1
    15     7    16    1
    16     8    17    1
    17     8    18    1
    18     8    19    1
    19    10    20    1
    20    10    21    1
    21    10    22    1
