@<TRIPOS>MOLECULE
IMPHY007544
 81 84 0 0 0
SMALL
GASTEIGER

@<TRIPOS>ATOM
      1 O           6.8671   -3.5000    0.0000 O.3     1  UNL1       -0.3401
      2 O           6.8671   -0.5000    0.0000 O.3     1  UNL1       -0.3394
      3 O           5.1350   -3.5000    0.0000 O.3     1  UNL1       -0.3405
      4 O           8.5991   -2.5000    0.0000 O.3     1  UNL1       -0.3864
      5 O           5.1350   -0.5000    0.0000 O.3     1  UNL1       -0.3484
      6 O           5.1350   -2.5000    0.0000 O.3     1  UNL1       -0.3841
      7 O           6.8671   -5.5000    0.0000 O.3     1  UNL1       -0.3841
      8 O           5.1350   -6.5000    0.0000 O.3     1  UNL1       -0.3864
      9 O           3.4030   -5.5000    0.0000 O.3     1  UNL1       -0.3865
     10 O           8.5991    0.5000    0.0000 O.3     1  UNL1       -0.4589
     11 O           2.5369   -4.0000    0.0000 O.3     1  UNL1       -0.3924
     12 O          10.3312    0.5000    0.0000 O.2     1  UNL1       -0.2456
     13 O           6.0010    4.0000    0.0000 O.3     1  UNL1       -0.5033
     14 O           4.2690    5.0000    0.0000 O.3     1  UNL1       -0.5033
     15 O          12.0632    5.5000    0.0000 O.3     1  UNL1       -0.5033
     16 O          10.3312    6.5000    0.0000 O.3     1  UNL1       -0.5033
     17 C           6.8671   -2.5000    0.0000 C.3     1  UNL1        0.1206
     18 C           7.7331   -2.0000    0.0000 C.3     1  UNL1        0.1133
     19 C           6.0010   -2.0000    0.0000 C.3     1  UNL1        0.1345
     20 C           6.0010   -4.0000    0.0000 C.3     1  UNL1        0.1884
     21 C           7.7331   -1.0000    0.0000 C.3     1  UNL1        0.1240
     22 C           6.0010   -5.0000    0.0000 C.3     1  UNL1        0.1341
     23 C           5.1350   -5.5000    0.0000 C.3     1  UNL1        0.1141
     24 C           6.0010   -1.0000    0.0000 C.3     1  UNL1        0.1880
     25 C           4.2690   -5.0000    0.0000 C.3     1  UNL1        0.1119
     26 C           4.2690   -4.0000    0.0000 C.3     1  UNL1        0.1130
     27 C           8.5991   -0.5000    0.0000 C.3     1  UNL1        0.1215
     28 C           3.4030   -3.5000    0.0000 C.3     1  UNL1        0.0730
     29 C           5.1350    0.5000    0.0000 C.3     1  UNL1        0.0547
     30 C           4.2690    1.0000    0.0000 C.3     1  UNL1       -0.0039
     31 C           9.4651    1.0000    0.0000 C.2     1  UNL1        0.3320
     32 C           4.2690    2.0000    0.0000 C.ar    1  UNL1       -0.0415
     33 C           5.1350    2.5000    0.0000 C.ar    1  UNL1       -0.0133
     34 C           9.4651    2.0000    0.0000 C.2     1  UNL1        0.0231
     35 C           3.4030    2.5000    0.0000 C.ar    1  UNL1       -0.0548
     36 C           5.1350    3.5000    0.0000 C.ar    1  UNL1        0.1585
     37 C           3.4030    3.5000    0.0000 C.ar    1  UNL1       -0.0163
     38 C          10.3312    2.5000    0.0000 C.2     1  UNL1       -0.0477
     39 C           4.2690    4.0000    0.0000 C.ar    1  UNL1        0.1582
     40 C          10.3312    3.5000    0.0000 C.ar    1  UNL1       -0.0211
     41 C          11.1972    4.0000    0.0000 C.ar    1  UNL1       -0.0094
     42 C           9.4651    4.0000    0.0000 C.ar    1  UNL1       -0.0509
     43 C          11.1972    5.0000    0.0000 C.ar    1  UNL1        0.1588
     44 C           9.4651    5.0000    0.0000 C.ar    1  UNL1       -0.0160
     45 C          10.3312    5.5000    0.0000 C.ar    1  UNL1        0.1582
     46 H           7.4040   -2.8100    0.0000 H       1  UNL1        0.0651
     47 H           8.2700   -1.6900    0.0000 H       1  UNL1        0.0647
     48 H           6.0010   -2.6200    0.0000 H       1  UNL1        0.0671
     49 H           6.0010   -3.3800    0.0000 H       1  UNL1        0.0938
     50 H           7.7331   -0.3800    0.0000 H       1  UNL1        0.0658
     51 H           6.0010   -5.6200    0.0000 H       1  UNL1        0.0671
     52 H           4.5981   -5.8100    0.0000 H       1  UNL1        0.0648
     53 H           6.0010   -0.3800    0.0000 H       1  UNL1        0.0937
     54 H           3.7320   -4.6900    0.0000 H       1  UNL1        0.0647
     55 H           4.2690   -3.3800    0.0000 H       1  UNL1        0.0647
     56 H           8.8112   -1.0826    0.0000 H       1  UNL1        0.0725
     57 H           9.2097   -0.3923    0.0000 H       1  UNL1        0.0725
     58 H           3.8015   -3.0250    0.0000 H       1  UNL1        0.0584
     59 H           3.0044   -3.0250    0.0000 H       1  UNL1        0.0584
     60 H           9.1360   -2.1900    0.0000 H       1  UNL1        0.2100
     61 H           4.5981   -2.1900    0.0000 H       1  UNL1        0.2101
     62 H           6.8671   -6.1200    0.0000 H       1  UNL1        0.2101
     63 H           4.5981   -6.8100    0.0000 H       1  UNL1        0.2100
     64 H           3.4030   -6.1200    0.0000 H       1  UNL1        0.2100
     65 H           5.7456    0.3923    0.0000 H       1  UNL1        0.0564
     66 H           5.3471    1.0826    0.0000 H       1  UNL1        0.0564
     67 H           3.6584    1.1077    0.0000 H       1  UNL1        0.0335
     68 H           4.0569    0.4174    0.0000 H       1  UNL1        0.0335
     69 H           2.0000   -3.6900    0.0000 H       1  UNL1        0.2095
     70 H           5.6720    2.1900    0.0000 H       1  UNL1        0.0658
     71 H           8.9282    2.3100    0.0000 H       1  UNL1        0.0689
     72 H           2.8660    2.1900    0.0000 H       1  UNL1        0.0621
     73 H           2.8660    3.8100    0.0000 H       1  UNL1        0.0655
     74 H          10.8681    2.1900    0.0000 H       1  UNL1        0.0626
     75 H           6.0010    4.6200    0.0000 H       1  UNL1        0.2923
     76 H           3.7320    5.3100    0.0000 H       1  UNL1        0.2923
     77 H          11.7341    3.6900    0.0000 H       1  UNL1        0.0661
     78 H           8.9282    3.6900    0.0000 H       1  UNL1        0.0625
     79 H           8.9282    5.3100    0.0000 H       1  UNL1        0.0655
     80 H          12.6002    5.1900    0.0000 H       1  UNL1        0.2923
     81 H           9.7942    6.8100    0.0000 H       1  UNL1        0.2923
@<TRIPOS>BOND
     1    17     1    1
     2    20     1    1
     3     2    21    1
     4     2    24    1
     5     3    20    1
     6     3    26    1
     7    18     4    1
     8     4    60    1
     9    24     5    1
    10     5    29    1
    11    19     6    1
    12     6    61    1
    13    22     7    1
    14     7    62    1
    15    23     8    1
    16     8    63    1
    17    25     9    1
    18     9    64    1
    19    10    27    1
    20    10    31    1
    21    11    28    1
    22    11    69    1
    23    12    31    2
    24    13    36    1
    25    13    75    1
    26    14    39    1
    27    14    76    1
    28    15    43    1
    29    15    80    1
    30    16    45    1
    31    16    81    1
    32    17    18    1
    33    17    19    1
    34    17    46    1
    35    18    21    1
    36    18    47    1
    37    19    24    1
    38    19    48    1
    39    20    22    1
    40    20    49    1
    41    21    27    1
    42    21    50    1
    43    22    23    1
    44    22    51    1
    45    23    25    1
    46    23    52    1
    47    24    53    1
    48    25    26    1
    49    25    54    1
    50    26    28    1
    51    26    55    1
    52    27    56    1
    53    27    57    1
    54    28    58    1
    55    28    59    1
    56    29    30    1
    57    29    65    1
    58    29    66    1
    59    30    32    1
    60    30    67    1
    61    30    68    1
    62    31    34    1
    63    32    33   ar
    64    32    35   ar
    65    33    36   ar
    66    33    70    1
    67    34    38    2
    68    34    71    1
    69    35    37   ar
    70    35    72    1
    71    36    39   ar
    72    37    39   ar
    73    37    73    1
    74    38    40    1
    75    38    74    1
    76    40    41   ar
    77    40    42   ar
    78    41    43   ar
    79    41    77    1
    80    42    44   ar
    81    42    78    1
    82    43    45   ar
    83    44    45   ar
    84    44    79    1
