@<TRIPOS>MOLECULE
IMPHY010585
 39 41 0 0 0
SMALL
GASTEIGER

@<TRIPOS>ATOM
      1 C           4.6660   -0.3341    0.0000 C.3     1  UNL1       -0.0230
      2 C           5.5323   -0.8345    0.0000 C.3     1  UNL1       -0.0279
      3 C           5.5321    0.1659    0.0000 C.3     1  UNL1       -0.0312
      4 C           3.8000    0.1659    0.0000 C.3     1  UNL1       -0.0049
      5 C           5.5321    1.1659    0.0000 C.3     1  UNL1       -0.0457
      6 C           3.8000    1.1659    0.0000 C.2     1  UNL1       -0.0670
      7 C           2.9061   -0.3688    0.0000 C.3     1  UNL1       -0.0342
      8 C           4.6660    1.6659    0.0000 C.3     1  UNL1       -0.0309
      9 C           6.5323   -0.8345    0.0000 C.3     1  UNL1       -0.0593
     10 C           5.0323   -1.7006    0.0000 C.3     1  UNL1       -0.0593
     11 C           3.8000   -0.8341    0.0000 C.3     1  UNL1       -0.0553
     12 C           2.0000    0.1451    0.0000 C.3     1  UNL1       -0.0462
     13 C           2.9061    1.7006    0.0000 C.2     1  UNL1       -0.0842
     14 C           2.0000    1.1867    0.0000 C.3     1  UNL1       -0.0342
     15 C           2.9176   -1.3687    0.0000 C.3     1  UNL1       -0.0616
     16 H           4.2409   -1.0702    0.0000 H       1  UNL1        0.0317
     17 H           6.3821    0.1660    0.0000 H       1  UNL1        0.0309
     18 H           6.1426    1.0582    0.0000 H       1  UNL1        0.0271
     19 H           5.7441    1.7485    0.0000 H       1  UNL1        0.0271
     20 H           2.3721   -0.6839    0.0000 H       1  UNL1        0.0307
     21 H           5.0646    2.1408    0.0000 H       1  UNL1        0.0310
     22 H           4.2675    2.1408    0.0000 H       1  UNL1        0.0310
     23 H           4.4954   -1.3906    0.0000 H       1  UNL1        0.0235
     24 H           6.5323   -1.4545    0.0000 H       1  UNL1        0.0235
     25 H           7.1523   -0.8345    0.0000 H       1  UNL1        0.0235
     26 H           6.5323   -0.2145    0.0000 H       1  UNL1        0.0235
     27 H           4.7223   -2.2375    0.0000 H       1  UNL1        0.0235
     28 H           5.5692   -2.0106    0.0000 H       1  UNL1        0.0235
     29 H           3.1800   -0.8341    0.0000 H       1  UNL1        0.0238
     30 H           3.8000   -1.4541    0.0000 H       1  UNL1        0.0238
     31 H           4.4200   -0.8341    0.0000 H       1  UNL1        0.0238
     32 H           1.3891    0.2512    0.0000 H       1  UNL1        0.0271
     33 H           1.7909   -0.4386    0.0000 H       1  UNL1        0.0271
     34 H           2.9132    2.3205    0.0000 H       1  UNL1        0.0572
     35 H           1.7909    1.7704    0.0000 H       1  UNL1        0.0307
     36 H           1.3891    1.0806    0.0000 H       1  UNL1        0.0307
     37 H           2.2977   -1.3759    0.0000 H       1  UNL1        0.0233
     38 H           2.9248   -1.9886    0.0000 H       1  UNL1        0.0233
     39 H           3.5376   -1.3615    0.0000 H       1  UNL1        0.0233
@<TRIPOS>BOND
     1     1     2    1
     2     1     3    1
     3     1     4    1
     4     1    16    1
     5     2     3    1
     6     2     9    1
     7     2    10    1
     8     3     5    1
     9     3    17    1
    10     4     6    1
    11     4     7    1
    12     4    11    1
    13     5     8    1
    14     5    18    1
    15     5    19    1
    16     6     8    1
    17     6    13    2
    18     7    12    1
    19     7    15    1
    20     7    20    1
    21     8    21    1
    22     8    22    1
    23     9    24    1
    24     9    25    1
    25     9    26    1
    26    10    23    1
    27    10    27    1
    28    10    28    1
    29    11    29    1
    30    11    30    1
    31    11    31    1
    32    12    14    1
    33    12    32    1
    34    12    33    1
    35    13    14    1
    36    13    34    1
    37    14    35    1
    38    14    36    1
    39    15    37    1
    40    15    38    1
    41    15    39    1
