@<TRIPOS>MOLECULE
IMPHY015709
 81 85 0 0 0
SMALL
GASTEIGER

@<TRIPOS>ATOM
      1 O           2.5357   -3.0234    0.0000 O.3     1  UNL1       -0.3912
      2 O           5.3307    0.5289    0.0000 O.2     1  UNL1       -0.2923
      3 O          11.4608    0.0631    0.0000 O.3     1  UNL1       -0.3944
      4 O          11.2187    3.0886    0.0000 O.3     1  UNL1       -0.4802
      5 O           9.7088    3.9372    0.0000 O.2     1  UNL1       -0.2504
      6 C           7.0628   -1.4710    0.0000 C.3     1  UNL1       -0.0127
      7 C           5.2868   -1.4779    0.0000 C.3     1  UNL1       -0.0182
      8 C           7.9288   -0.9711    0.0000 C.3     1  UNL1       -0.0043
      9 C           6.1968   -0.9711    0.0000 C.3     1  UNL1        0.0333
     10 C           5.2787   -2.5195    0.0000 C.3     1  UNL1       -0.0274
     11 C           7.0789   -2.5126    0.0000 C.3     1  UNL1       -0.0459
     12 C           7.9288    0.0289    0.0000 C.2     1  UNL1       -0.0561
     13 C           6.1808   -3.0403    0.0000 C.3     1  UNL1       -0.0486
     14 C           8.8228    0.5636    0.0000 C.3     1  UNL1       -0.0102
     15 C           4.3433   -3.0692    0.0000 C.3     1  UNL1       -0.0056
     16 C           9.7288    0.0498    0.0000 C.3     1  UNL1        0.0005
     17 C           8.8228   -1.5057    0.0000 C.3     1  UNL1       -0.0428
     18 C           4.3599   -0.9138    0.0000 C.3     1  UNL1       -0.0443
     19 C           9.7288   -0.9919    0.0000 C.3     1  UNL1       -0.0439
     20 C           6.1968    0.0289    0.0000 C.2     1  UNL1        0.1602
     21 C           7.7056   -2.2371    0.0000 C.3     1  UNL1       -0.0581
     22 C           3.4037   -2.5267    0.0000 C.3     1  UNL1        0.0606
     23 C           5.2945   -0.4779    0.0000 C.3     1  UNL1       -0.0586
     24 C           3.4120   -1.4418    0.0000 C.3     1  UNL1       -0.0258
     25 C           8.2709   -1.9107    0.0000 C.3     1  UNL1       -0.0553
     26 C           8.7977    1.6483    0.0000 C.3     1  UNL1       -0.0304
     27 C           7.0628    0.5289    0.0000 C.2     1  UNL1       -0.0188
     28 C          10.6726    0.5850    0.0000 C.3     1  UNL1       -0.0437
     29 C           9.7288    2.2052    0.0000 C.3     1  UNL1        0.0654
     30 C          10.6726    1.6700    0.0000 C.3     1  UNL1       -0.0369
     31 C          10.5987   -0.4435    0.0000 C.3     1  UNL1        0.0504
     32 C           3.8467   -3.9372    0.0000 C.3     1  UNL1       -0.0572
     33 C           4.8466   -3.9333    0.0000 C.3     1  UNL1       -0.0572
     34 C           9.2188    3.0654    0.0000 C.3     1  UNL1       -0.0494
     35 C          10.2188    3.0770    0.0000 C.2     1  UNL1        0.3107
     36 H           6.7337   -0.6611    0.0000 H       1  UNL1        0.0392
     37 H           5.2811   -3.1395    0.0000 H       1  UNL1        0.0312
     38 H           7.2969   -3.0930    0.0000 H       1  UNL1        0.0271
     39 H           7.6880   -2.3971    0.0000 H       1  UNL1        0.0271
     40 H           5.7835   -3.5163    0.0000 H       1  UNL1        0.0268
     41 H           6.5818   -3.5132    0.0000 H       1  UNL1        0.0268
     42 H           9.3549    0.8819    0.0000 H       1  UNL1        0.0352
     43 H           8.4182   -1.9755    0.0000 H       1  UNL1        0.0274
     44 H           9.2164   -1.9847    0.0000 H       1  UNL1        0.0274
     45 H           4.7681   -0.4472    0.0000 H       1  UNL1        0.0272
     46 H           3.9700   -0.4318    0.0000 H       1  UNL1        0.0272
     47 H           9.9379   -1.5756    0.0000 H       1  UNL1        0.0272
     48 H          10.3397   -0.8858    0.0000 H       1  UNL1        0.0272
     49 H           7.2306   -2.6356    0.0000 H       1  UNL1        0.0236
     50 H           8.1041   -2.7120    0.0000 H       1  UNL1        0.0236
     51 H           8.1805   -1.8386    0.0000 H       1  UNL1        0.0236
     52 H           3.4025   -3.1467    0.0000 H       1  UNL1        0.0599
     53 H           5.9145   -0.4827    0.0000 H       1  UNL1        0.0235
     54 H           5.2993    0.1421    0.0000 H       1  UNL1        0.0235
     55 H           4.6745   -0.4731    0.0000 H       1  UNL1        0.0235
     56 H           3.2075   -0.8565    0.0000 H       1  UNL1        0.0290
     57 H           2.8004   -1.5431    0.0000 H       1  UNL1        0.0290
     58 H           7.6884   -2.1228    0.0000 H       1  UNL1        0.0238
     59 H           8.4830   -2.4933    0.0000 H       1  UNL1        0.0238
     60 H           8.8535   -1.6986    0.0000 H       1  UNL1        0.0238
     61 H           8.5752    2.2270    0.0000 H       1  UNL1        0.0282
     62 H           8.1894    1.5281    0.0000 H       1  UNL1        0.0282
     63 H           7.0628    1.1490    0.0000 H       1  UNL1        0.0652
     64 H          10.8817    0.0013    0.0000 H       1  UNL1        0.0272
     65 H          11.2835    0.6911    0.0000 H       1  UNL1        0.0272
     66 H          11.2835    1.5639    0.0000 H       1  UNL1        0.0276
     67 H          10.8817    2.2537    0.0000 H       1  UNL1        0.0276
     68 H          10.2038   -0.9216    0.0000 H       1  UNL1        0.0563
     69 H          11.0009   -0.9154    0.0000 H       1  UNL1        0.0563
     70 H           3.3085   -3.6292    0.0000 H       1  UNL1        0.0236
     71 H           3.5387   -4.4753    0.0000 H       1  UNL1        0.0236
     72 H           4.3848   -4.2451    0.0000 H       1  UNL1        0.0236
     73 H           4.3109   -4.2454    0.0000 H       1  UNL1        0.0236
     74 H           5.1587   -4.4690    0.0000 H       1  UNL1        0.0236
     75 H           5.3824   -3.6212    0.0000 H       1  UNL1        0.0236
     76 H           9.7522    3.3816    0.0000 H       1  UNL1        0.0240
     77 H           8.9027    3.5987    0.0000 H       1  UNL1        0.0240
     78 H           8.6855    2.7492    0.0000 H       1  UNL1        0.0240
     79 H           2.0000   -2.7113    0.0000 H       1  UNL1        0.2098
     80 H          12.0001   -0.2427    0.0000 H       1  UNL1        0.2094
     81 H          11.5225    3.6290    0.0000 H       1  UNL1        0.2951
@<TRIPOS>BOND
     1     1    22    1
     2     1    79    1
     3     2    20    2
     4     3    31    1
     5     3    80    1
     6     4    35    1
     7     4    81    1
     8     5    35    2
     9     6     8    1
    10     6     9    1
    11     6    11    1
    12     6    21    1
    13     7     9    1
    14     7    10    1
    15     7    18    1
    16     7    23    1
    17     8    12    1
    18     8    17    1
    19     8    25    1
    20     9    20    1
    21     9    36    1
    22    10    13    1
    23    10    15    1
    24    10    37    1
    25    11    13    1
    26    11    38    1
    27    11    39    1
    28    12    14    1
    29    12    27    2
    30    13    40    1
    31    13    41    1
    32    14    16    1
    33    14    26    1
    34    14    42    1
    35    15    22    1
    36    15    32    1
    37    15    33    1
    38    16    19    1
    39    16    28    1
    40    16    31    1
    41    17    19    1
    42    17    43    1
    43    17    44    1
    44    18    24    1
    45    18    45    1
    46    18    46    1
    47    19    47    1
    48    19    48    1
    49    20    27    1
    50    21    49    1
    51    21    50    1
    52    21    51    1
    53    22    24    1
    54    22    52    1
    55    23    53    1
    56    23    54    1
    57    23    55    1
    58    24    56    1
    59    24    57    1
    60    25    58    1
    61    25    59    1
    62    25    60    1
    63    26    29    1
    64    26    61    1
    65    26    62    1
    66    27    63    1
    67    28    30    1
    68    28    64    1
    69    28    65    1
    70    29    30    1
    71    29    34    1
    72    29    35    1
    73    30    66    1
    74    30    67    1
    75    31    68    1
    76    31    69    1
    77    32    70    1
    78    32    71    1
    79    32    72    1
    80    33    73    1
    81    33    74    1
    82    33    75    1
    83    34    76    1
    84    34    77    1
    85    34    78    1
