@<TRIPOS>MOLECULE
IMPHY015363
 56 57 0 0 0
SMALL
GASTEIGER

@<TRIPOS>ATOM
      1 O           2.5369    2.4973    0.0000 O.3     1  UNL1       -0.3912
      2 O           6.8544   -3.0471    0.0000 O.3     1  UNL1       -0.3848
      3 C           5.1350    0.9973    0.0000 C.3     1  UNL1       -0.0221
      4 C           5.1350    1.9973    0.0000 C.3     1  UNL1       -0.0273
      5 C           4.2690    2.4973    0.0000 C.3     1  UNL1       -0.0056
      6 C           6.0290    0.4626    0.0000 C.3     1  UNL1       -0.0144
      7 C           4.2690    0.4973    0.0000 C.3     1  UNL1       -0.0445
      8 C           3.4030    1.9973    0.0000 C.3     1  UNL1        0.0606
      9 C           6.0290    2.5320    0.0000 C.3     1  UNL1       -0.0454
     10 C           3.4030    0.9973    0.0000 C.3     1  UNL1       -0.0258
     11 C           5.1350   -0.0027    0.0000 C.3     1  UNL1       -0.0587
     12 C           6.9350    2.0181    0.0000 C.3     1  UNL1       -0.0314
     13 C           6.9350    0.9765    0.0000 C.2     1  UNL1       -0.0730
     14 C           6.0174   -0.5373    0.0000 C.3     1  UNL1       -0.0431
     15 C           3.7690    3.3633    0.0000 C.3     1  UNL1       -0.0572
     16 C           4.7690    3.3633    0.0000 C.3     1  UNL1       -0.0572
     17 C           6.8776   -1.0473    0.0000 C.3     1  UNL1       -0.0201
     18 C           7.7991    0.4732    0.0000 C.2     1  UNL1       -0.0992
     19 C           6.8660   -2.0472    0.0000 C.3     1  UNL1        0.0811
     20 C           5.8661   -2.0356    0.0000 C.3     1  UNL1       -0.0325
     21 C           7.8660   -2.0588    0.0000 C.2     1  UNL1       -0.0602
     22 C           8.3559   -2.9305    0.0000 C.2     1  UNL1       -0.1000
     23 H           5.1285    2.8473    0.0000 H       1  UNL1        0.0312
     24 H           6.5629    0.1475    0.0000 H       1  UNL1        0.0351
     25 H           3.8705    0.0224    0.0000 H       1  UNL1        0.0272
     26 H           4.6675    0.0224    0.0000 H       1  UNL1        0.0272
     27 H           3.4030    2.6173    0.0000 H       1  UNL1        0.0599
     28 H           6.4226    3.0110    0.0000 H       1  UNL1        0.0271
     29 H           5.6244    3.0018    0.0000 H       1  UNL1        0.0271
     30 H           2.7924    1.1050    0.0000 H       1  UNL1        0.0290
     31 H           3.1909    0.4147    0.0000 H       1  UNL1        0.0290
     32 H           4.5150   -0.0027    0.0000 H       1  UNL1        0.0235
     33 H           5.1350   -0.6227    0.0000 H       1  UNL1        0.0235
     34 H           5.7550   -0.0027    0.0000 H       1  UNL1        0.0235
     35 H           7.5459    1.9120    0.0000 H       1  UNL1        0.0310
     36 H           7.1441    2.6018    0.0000 H       1  UNL1        0.0310
     37 H           5.4081   -0.4226    0.0000 H       1  UNL1        0.0272
     38 H           5.7986   -1.1174    0.0000 H       1  UNL1        0.0272
     39 H           4.3059    3.6733    0.0000 H       1  UNL1        0.0236
     40 H           3.4590    3.9003    0.0000 H       1  UNL1        0.0236
     41 H           3.2320    3.0533    0.0000 H       1  UNL1        0.0236
     42 H           5.3059    3.0533    0.0000 H       1  UNL1        0.0236
     43 H           5.0790    3.9003    0.0000 H       1  UNL1        0.0236
     44 H           4.2320    3.6733    0.0000 H       1  UNL1        0.0236
     45 H           7.4869   -1.1620    0.0000 H       1  UNL1        0.0296
     46 H           7.0964   -0.4672    0.0000 H       1  UNL1        0.0296
     47 H           2.0000    2.1873    0.0000 H       1  UNL1        0.2098
     48 H           7.7967   -0.1468    0.0000 H       1  UNL1        0.0534
     49 H           8.3372    0.7811    0.0000 H       1  UNL1        0.0534
     50 H           5.8732   -1.4157    0.0000 H       1  UNL1        0.0260
     51 H           5.2461   -2.0285    0.0000 H       1  UNL1        0.0260
     52 H           5.8589   -2.6556    0.0000 H       1  UNL1        0.0260
     53 H           8.1821   -1.5254    0.0000 H       1  UNL1        0.0594
     54 H           7.3878   -3.3633    0.0000 H       1  UNL1        0.2106
     55 H           8.0397   -3.4638    0.0000 H       1  UNL1        0.0533
     56 H           8.9759   -2.9377    0.0000 H       1  UNL1        0.0533
@<TRIPOS>BOND
     1     8     1    1
     2     1    47    1
     3    19     2    1
     4     2    54    1
     5     3     4    1
     6     3     6    1
     7     3     7    1
     8     3    11    1
     9     4     5    1
    10     4     9    1
    11     4    23    1
    12     5     8    1
    13     5    15    1
    14     5    16    1
    15     6    13    1
    16     6    14    1
    17     6    24    1
    18     7    10    1
    19     7    25    1
    20     7    26    1
    21     8    10    1
    22     8    27    1
    23     9    12    1
    24     9    28    1
    25     9    29    1
    26    10    30    1
    27    10    31    1
    28    11    32    1
    29    11    33    1
    30    11    34    1
    31    12    13    1
    32    12    35    1
    33    12    36    1
    34    13    18    2
    35    14    17    1
    36    14    37    1
    37    14    38    1
    38    15    39    1
    39    15    40    1
    40    15    41    1
    41    16    42    1
    42    16    43    1
    43    16    44    1
    44    17    19    1
    45    17    45    1
    46    17    46    1
    47    18    48    1
    48    18    49    1
    49    19    20    1
    50    19    21    1
    51    20    50    1
    52    20    51    1
    53    20    52    1
    54    21    22    2
    55    21    53    1
    56    22    55    1
    57    22    56    1
