@<TRIPOS>MOLECULE
IMPHY003381
 25 26 0 0 0
SMALL
GASTEIGER

@<TRIPOS>ATOM
      1 S           7.8171   -0.4333    0.0000 S.2     1  UNL1       -0.0794
      2 S           9.8862   -1.1056    0.0000 S.2     1  UNL1       -0.0961
      3 O           2.4608   -0.4124    0.0000 O.3     1  UNL1       -0.3941
      4 C           8.6262    0.1545    0.0000 C.ar    1  UNL1        0.0271
      5 C           9.5772   -0.1545    0.0000 C.ar    1  UNL1        0.0259
      6 C           8.3171    1.1056    0.0000 C.ar    1  UNL1       -0.0452
      7 C           7.0081    0.1545    0.0000 C.ar    1  UNL1        0.0625
      8 C           7.3171    1.1056    0.0000 C.ar    1  UNL1       -0.0386
      9 C          10.3862    0.4333    0.0000 C.ar    1  UNL1       -0.0464
     10 C          11.1952   -0.1545    0.0000 C.ar    1  UNL1       -0.0541
     11 C          10.8862   -1.1056    0.0000 C.ar    1  UNL1       -0.0237
     12 C           4.1550   -0.7725    0.0000 C.3     1  UNL1        0.0327
     13 C           3.4118   -0.1034    0.0000 C.3     1  UNL1        0.0550
     14 C           6.0571   -0.1545    0.0000 C.1     1  UNL1       -0.0590
     15 C           5.1060   -0.4635    0.0000 C.1     1  UNL1       -0.0942
     16 H           8.6816    1.6072    0.0000 H       1  UNL1        0.0629
     17 H           6.9527    1.6072    0.0000 H       1  UNL1        0.0635
     18 H          10.3862    1.0533    0.0000 H       1  UNL1        0.0629
     19 H          11.7849    0.0371    0.0000 H       1  UNL1        0.0623
     20 H           3.6664   -1.1542    0.0000 H       1  UNL1        0.0420
     21 H           4.4460   -1.3200    0.0000 H       1  UNL1        0.0420
     22 H          11.2507   -1.6072    0.0000 H       1  UNL1        0.0693
     23 H           3.9004    0.2783    0.0000 H       1  UNL1        0.0566
     24 H           3.1207    0.4440    0.0000 H       1  UNL1        0.0566
     25 H           2.0000    0.0024    0.0000 H       1  UNL1        0.2094
@<TRIPOS>BOND
     1     1     4   ar
     2     1     7   ar
     3     2     5   ar
     4     2    11   ar
     5     3    13    1
     6     3    25    1
     7     4     5    1
     8     4     6   ar
     9     5     9   ar
    10     6     8   ar
    11     6    16    1
    12     7     8   ar
    13     7    14    1
    14     8    17    1
    15     9    10   ar
    16     9    18    1
    17    10    11   ar
    18    10    19    1
    19    11    22    1
    20    12    13    1
    21    12    15    1
    22    12    20    1
    23    12    21    1
    24    13    23    1
    25    13    24    1
    26    14    15    3
