@<TRIPOS>MOLECULE
IMPHY009466
 32 34 0 0 0
SMALL
GASTEIGER

@<TRIPOS>ATOM
      1 O           5.4239    2.2823    0.0000 O.3     1  UNL1       -0.4838
      2 O           7.9788    2.9894    0.0000 O.2     1  UNL1       -0.2934
      3 O           6.8830   -2.6101    0.0000 O.3     1  UNL1       -0.5033
      4 O           8.7754   -1.8262    0.0000 O.3     1  UNL1       -0.5033
      5 O           2.3793    0.8231    0.0000 O.3     1  UNL1       -0.5066
      6 C           7.2717    0.4345    0.0000 C.ar    1  UNL1       -0.0287
      7 C           6.3478    0.0518    0.0000 C.ar    1  UNL1       -0.0071
      8 C           7.6543    1.3584    0.0000 C.3     1  UNL1        0.0351
      9 C           5.4239    0.4345    0.0000 C.ar    1  UNL1        0.0244
     10 C           5.0412    1.3584    0.0000 C.ar    1  UNL1        0.1323
     11 C           6.1959   -0.9787    0.0000 C.ar    1  UNL1       -0.0084
     12 C           8.1077   -0.1868    0.0000 C.ar    1  UNL1       -0.0124
     13 C           7.2717    2.2823    0.0000 C.2     1  UNL1        0.1747
     14 C           6.3478    2.6650    0.0000 C.3     1  UNL1        0.1476
     15 C           4.8026   -0.4015    0.0000 C.ar    1  UNL1       -0.0471
     16 C           7.0174   -1.6191    0.0000 C.ar    1  UNL1        0.1588
     17 C           7.9797   -1.2205    0.0000 C.ar    1  UNL1        0.1585
     18 C           4.0107    1.5103    0.0000 C.ar    1  UNL1        0.0222
     19 C           3.7689   -0.2735    0.0000 C.ar    1  UNL1       -0.0194
     20 C           3.3703    0.6888    0.0000 C.ar    1  UNL1        0.1204
     21 H           8.1462    0.9810    0.0000 H       1  UNL1        0.0391
     22 H           8.1462    1.7358    0.0000 H       1  UNL1        0.0391
     23 H           5.6204   -1.2093    0.0000 H       1  UNL1        0.0661
     24 H           8.6777    0.0571    0.0000 H       1  UNL1        0.0658
     25 H           6.7252    3.1568    0.0000 H       1  UNL1        0.0777
     26 H           5.9704    3.1568    0.0000 H       1  UNL1        0.0777
     27 H           5.0465   -0.9716    0.0000 H       1  UNL1        0.0626
     28 H           3.7801    2.0858    0.0000 H       1  UNL1        0.0691
     29 H           3.3933   -0.7669    0.0000 H       1  UNL1        0.0654
     30 H           7.3735   -2.9894    0.0000 H       1  UNL1        0.2923
     31 H           9.3473   -1.5867    0.0000 H       1  UNL1        0.2923
     32 H           2.0000    0.3327    0.0000 H       1  UNL1        0.2921
@<TRIPOS>BOND
     1     1    10    1
     2     1    14    1
     3     2    13    2
     4     3    16    1
     5     3    30    1
     6     4    17    1
     7     4    31    1
     8     5    20    1
     9     5    32    1
    10     6     7   ar
    11     6     8    1
    12     6    12   ar
    13     7     9    1
    14     7    11   ar
    15     8    13    1
    16     8    21    1
    17     8    22    1
    18     9    10   ar
    19     9    15   ar
    20    10    18   ar
    21    11    16   ar
    22    11    23    1
    23    12    17   ar
    24    12    24    1
    25    13    14    1
    26    14    25    1
    27    14    26    1
    28    15    19   ar
    29    15    27    1
    30    16    17   ar
    31    18    20   ar
    32    18    28    1
    33    19    20   ar
    34    19    29    1
