@<TRIPOS>MOLECULE
IMPHY004584
 82 85 0 0 0
SMALL
GASTEIGER

@<TRIPOS>ATOM
      1 O           9.7942   -2.7500    0.0000 O.3     1  UNL1       -0.3389
      2 O           9.7942    0.2500    0.0000 O.3     1  UNL1       -0.3394
      3 O          11.5263   -2.7500    0.0000 O.3     1  UNL1       -0.3405
      4 O           8.0622   -1.7500    0.0000 O.3     1  UNL1       -0.4528
      5 O          11.5263    0.2500    0.0000 O.3     1  UNL1       -0.3458
      6 O          11.5263   -1.7500    0.0000 O.3     1  UNL1       -0.3841
      7 O           9.7942   -4.7500    0.0000 O.3     1  UNL1       -0.3841
      8 O          11.5263   -5.7500    0.0000 O.3     1  UNL1       -0.3864
      9 O          13.2583   -4.7500    0.0000 O.3     1  UNL1       -0.3865
     10 O           8.0622    1.2500    0.0000 O.3     1  UNL1       -0.3923
     11 O          13.2583   -1.7500    0.0000 O.3     1  UNL1       -0.3924
     12 O          13.2583    1.2500    0.0000 O.3     1  UNL1       -0.3849
     13 O           7.1962   -0.2500    0.0000 O.2     1  UNL1       -0.2456
     14 O          14.1244    4.7500    0.0000 O.3     1  UNL1       -0.5033
     15 O          12.3923    5.7500    0.0000 O.3     1  UNL1       -0.5033
     16 O           2.0000   -1.2500    0.0000 O.3     1  UNL1       -0.5033
     17 O           2.0000   -3.2500    0.0000 O.3     1  UNL1       -0.5033
     18 C           9.7942   -1.7500    0.0000 C.3     1  UNL1        0.1316
     19 C           8.9282   -1.2500    0.0000 C.3     1  UNL1        0.1602
     20 C          10.6603   -1.2500    0.0000 C.3     1  UNL1        0.1355
     21 C           8.9282   -0.2500    0.0000 C.3     1  UNL1        0.1240
     22 C          10.6603   -3.2500    0.0000 C.3     1  UNL1        0.1885
     23 C          10.6603   -4.2500    0.0000 C.3     1  UNL1        0.1341
     24 C          10.6603   -0.2500    0.0000 C.3     1  UNL1        0.1881
     25 C          11.5263   -4.7500    0.0000 C.3     1  UNL1        0.1141
     26 C          12.3923   -4.2500    0.0000 C.3     1  UNL1        0.1119
     27 C          12.3923   -3.2500    0.0000 C.3     1  UNL1        0.1130
     28 C           8.0622    0.2500    0.0000 C.3     1  UNL1        0.0741
     29 C          13.2583   -2.7500    0.0000 C.3     1  UNL1        0.0730
     30 C          11.5263    1.2500    0.0000 C.3     1  UNL1        0.0808
     31 C           7.1962   -1.2500    0.0000 C.2     1  UNL1        0.3324
     32 C          12.3923    1.7500    0.0000 C.3     1  UNL1        0.1036
     33 C          12.3923    2.7500    0.0000 C.ar    1  UNL1       -0.0133
     34 C           6.3301   -1.7500    0.0000 C.2     1  UNL1        0.0231
     35 C          13.2583    3.2500    0.0000 C.ar    1  UNL1       -0.0108
     36 C          11.5263    3.2500    0.0000 C.ar    1  UNL1       -0.0524
     37 C           5.4641   -1.2500    0.0000 C.2     1  UNL1       -0.0477
     38 C          13.2583    4.2500    0.0000 C.ar    1  UNL1        0.1586
     39 C          11.5263    4.2500    0.0000 C.ar    1  UNL1       -0.0162
     40 C           4.5981   -1.7500    0.0000 C.ar    1  UNL1       -0.0211
     41 C          12.3923    4.7500    0.0000 C.ar    1  UNL1        0.1582
     42 C           3.7320   -1.2500    0.0000 C.ar    1  UNL1       -0.0094
     43 C           4.5981   -2.7500    0.0000 C.ar    1  UNL1       -0.0509
     44 C           2.8660   -1.7500    0.0000 C.ar    1  UNL1        0.1588
     45 C           3.7320   -3.2500    0.0000 C.ar    1  UNL1       -0.0160
     46 C           2.8660   -2.7500    0.0000 C.ar    1  UNL1        0.1582
     47 H          10.3312   -2.0600    0.0000 H       1  UNL1        0.0663
     48 H           8.9282   -1.8700    0.0000 H       1  UNL1        0.0788
     49 H          10.6603   -1.8700    0.0000 H       1  UNL1        0.0671
     50 H           8.9282    0.3700    0.0000 H       1  UNL1        0.0658
     51 H          10.6603   -2.6300    0.0000 H       1  UNL1        0.0938
     52 H          10.6603   -4.8700    0.0000 H       1  UNL1        0.0671
     53 H          11.1972   -0.5600    0.0000 H       1  UNL1        0.0937
     54 H          12.0632   -5.0600    0.0000 H       1  UNL1        0.0648
     55 H          12.9292   -3.9400    0.0000 H       1  UNL1        0.0647
     56 H          12.3923   -2.6300    0.0000 H       1  UNL1        0.0647
     57 H           7.4516    0.3577    0.0000 H       1  UNL1        0.0584
     58 H           7.8501   -0.3326    0.0000 H       1  UNL1        0.0584
     59 H          13.4704   -3.3326    0.0000 H       1  UNL1        0.0584
     60 H          13.8689   -2.6423    0.0000 H       1  UNL1        0.0584
     61 H          12.0632   -1.4400    0.0000 H       1  UNL1        0.2101
     62 H           9.2573   -4.4400    0.0000 H       1  UNL1        0.2101
     63 H          12.0632   -6.0600    0.0000 H       1  UNL1        0.2100
     64 H          13.7953   -4.4400    0.0000 H       1  UNL1        0.2100
     65 H          11.3142    1.8326    0.0000 H       1  UNL1        0.0590
     66 H          10.9157    1.1423    0.0000 H       1  UNL1        0.0590
     67 H           7.5252    1.5600    0.0000 H       1  UNL1        0.2095
     68 H          12.9292    2.0600    0.0000 H       1  UNL1        0.0667
     69 H          13.7953   -1.4400    0.0000 H       1  UNL1        0.2095
     70 H           6.3301   -2.3700    0.0000 H       1  UNL1        0.0689
     71 H          13.7953    1.5600    0.0000 H       1  UNL1        0.2103
     72 H          13.7953    2.9400    0.0000 H       1  UNL1        0.0659
     73 H          10.9893    2.9400    0.0000 H       1  UNL1        0.0622
     74 H           5.4641   -0.6300    0.0000 H       1  UNL1        0.0626
     75 H          10.9893    4.5600    0.0000 H       1  UNL1        0.0655
     76 H           3.7320   -0.6300    0.0000 H       1  UNL1        0.0661
     77 H           5.1350   -3.0600    0.0000 H       1  UNL1        0.0625
     78 H          14.6613    4.4400    0.0000 H       1  UNL1        0.2923
     79 H          11.8554    6.0600    0.0000 H       1  UNL1        0.2923
     80 H           3.7320   -3.8700    0.0000 H       1  UNL1        0.0655
     81 H           2.0000   -0.6300    0.0000 H       1  UNL1        0.2923
     82 H           2.0000   -3.8700    0.0000 H       1  UNL1        0.2923
@<TRIPOS>BOND
     1    18     1    1
     2    22     1    1
     3     2    21    1
     4     2    24    1
     5     3    22    1
     6     3    27    1
     7    19     4    1
     8     4    31    1
     9    24     5    1
    10     5    30    1
    11    20     6    1
    12     6    61    1
    13    23     7    1
    14     7    62    1
    15    25     8    1
    16     8    63    1
    17    26     9    1
    18     9    64    1
    19    10    28    1
    20    10    67    1
    21    11    29    1
    22    11    69    1
    23    32    12    1
    24    12    71    1
    25    13    31    2
    26    14    38    1
    27    14    78    1
    28    15    41    1
    29    15    79    1
    30    16    44    1
    31    16    81    1
    32    17    46    1
    33    17    82    1
    34    18    19    1
    35    18    20    1
    36    18    47    1
    37    19    21    1
    38    19    48    1
    39    20    24    1
    40    20    49    1
    41    21    28    1
    42    21    50    1
    43    22    23    1
    44    22    51    1
    45    23    25    1
    46    23    52    1
    47    24    53    1
    48    25    26    1
    49    25    54    1
    50    26    27    1
    51    26    55    1
    52    27    29    1
    53    27    56    1
    54    28    57    1
    55    28    58    1
    56    29    59    1
    57    29    60    1
    58    30    32    1
    59    30    65    1
    60    30    66    1
    61    31    34    1
    62    32    33    1
    63    32    68    1
    64    33    35   ar
    65    33    36   ar
    66    34    37    2
    67    34    70    1
    68    35    38   ar
    69    35    72    1
    70    36    39   ar
    71    36    73    1
    72    37    40    1
    73    37    74    1
    74    38    41   ar
    75    39    41   ar
    76    39    75    1
    77    40    42   ar
    78    40    43   ar
    79    42    44   ar
    80    42    76    1
    81    43    45   ar
    82    43    77    1
    83    44    46   ar
    84    45    46   ar
    85    45    80    1
