@<TRIPOS>MOLECULE
IMPHY006938
 69 70 0 0 0
SMALL
GASTEIGER

@<TRIPOS>ATOM
      1 O           6.3301   -4.0670    0.0000 O.3     1  UNL1       -0.1918
      2 O           9.7942    1.9330    0.0000 O.3     1  UNL1       -0.1918
      3 O           6.3301   -3.0670    0.0000 O.3     1  UNL1       -0.0068
      4 O           8.9282    1.4330    0.0000 O.3     1  UNL1       -0.0068
      5 O           8.9282    0.4330    0.0000 O.3     1  UNL1       -0.2281
      6 O           7.1962   -2.5670    0.0000 O.3     1  UNL1       -0.2281
      7 O           8.0622   -1.0670    0.0000 O.3     1  UNL1       -0.3250
      8 O           7.1962    0.4330    0.0000 O.2     1  UNL1       -0.2000
      9 O           6.3301   -1.0670    0.0000 O.2     1  UNL1       -0.2000
     10 C           9.7942    4.9330    0.0000 C.3     1  UNL1       -0.0360
     11 C           3.7320   -5.5670    0.0000 C.3     1  UNL1       -0.0360
     12 C           9.7942    5.9330    0.0000 C.3     1  UNL1       -0.0349
     13 C           2.8660   -6.0670    0.0000 C.3     1  UNL1       -0.0349
     14 C           4.5981   -6.0670    0.0000 C.3     1  UNL1       -0.0473
     15 C           3.7320   -4.5670    0.0000 C.3     1  UNL1       -0.0473
     16 C           8.9282    4.4330    0.0000 C.3     1  UNL1       -0.0473
     17 C          10.6603    4.4330    0.0000 C.3     1  UNL1       -0.0473
     18 C           4.5981   -4.0670    0.0000 C.3     1  UNL1       -0.0232
     19 C           5.4641   -5.5670    0.0000 C.3     1  UNL1       -0.0232
     20 C           8.9282    3.4330    0.0000 C.3     1  UNL1       -0.0232
     21 C          10.6603    3.4330    0.0000 C.3     1  UNL1       -0.0232
     22 C           9.7942    2.9330    0.0000 C.3     1  UNL1        0.0977
     23 C           5.4641   -4.5670    0.0000 C.3     1  UNL1        0.0977
     24 C           2.0000   -6.5670    0.0000 C.3     1  UNL1       -0.0598
     25 C           9.7942    6.9330    0.0000 C.3     1  UNL1       -0.0598
     26 C          10.7942    5.9330    0.0000 C.3     1  UNL1       -0.0598
     27 C           8.7942    5.9330    0.0000 C.3     1  UNL1       -0.0598
     28 C           3.3660   -6.9330    0.0000 C.3     1  UNL1       -0.0598
     29 C           2.3660   -5.2010    0.0000 C.3     1  UNL1       -0.0598
     30 C           7.1962   -1.5670    0.0000 C.2     1  UNL1        0.5538
     31 C           8.0622   -0.0670    0.0000 C.2     1  UNL1        0.5538
     32 H           9.2573    5.2430    0.0000 H       1  UNL1        0.0306
     33 H           3.7320   -6.1870    0.0000 H       1  UNL1        0.0306
     34 H           3.5200   -3.9844    0.0000 H       1  UNL1        0.0269
     35 H           3.1215   -4.6746    0.0000 H       1  UNL1        0.0269
     36 H           8.7162    5.0156    0.0000 H       1  UNL1        0.0269
     37 H           8.3176    4.3254    0.0000 H       1  UNL1        0.0269
     38 H           4.1996   -6.5419    0.0000 H       1  UNL1        0.0269
     39 H          11.2708    4.3254    0.0000 H       1  UNL1        0.0269
     40 H          10.8723    5.0156    0.0000 H       1  UNL1        0.0269
     41 H           4.9966   -6.5419    0.0000 H       1  UNL1        0.0269
     42 H           8.3176    3.5407    0.0000 H       1  UNL1        0.0291
     43 H          10.8723    2.8504    0.0000 H       1  UNL1        0.0291
     44 H          11.2708    3.5407    0.0000 H       1  UNL1        0.0291
     45 H           8.7162    2.8504    0.0000 H       1  UNL1        0.0291
     46 H           4.9966   -3.5920    0.0000 H       1  UNL1        0.0291
     47 H           4.1996   -3.5920    0.0000 H       1  UNL1        0.0291
     48 H           5.6762   -6.1496    0.0000 H       1  UNL1        0.0291
     49 H           6.0747   -5.4593    0.0000 H       1  UNL1        0.0291
     50 H           9.2573    2.6230    0.0000 H       1  UNL1        0.0629
     51 H           5.4641   -3.9470    0.0000 H       1  UNL1        0.0629
     52 H          10.7942    5.3130    0.0000 H       1  UNL1        0.0235
     53 H          11.4142    5.9330    0.0000 H       1  UNL1        0.0235
     54 H           8.7942    6.5530    0.0000 H       1  UNL1        0.0235
     55 H           8.1742    5.9330    0.0000 H       1  UNL1        0.0235
     56 H           8.7942    5.3130    0.0000 H       1  UNL1        0.0235
     57 H           1.6900   -6.0300    0.0000 H       1  UNL1        0.0235
     58 H           1.4631   -6.8770    0.0000 H       1  UNL1        0.0235
     59 H           2.3100   -7.1039    0.0000 H       1  UNL1        0.0235
     60 H           2.8291   -7.2430    0.0000 H       1  UNL1        0.0235
     61 H           3.6760   -7.4700    0.0000 H       1  UNL1        0.0235
     62 H           3.9030   -6.6230    0.0000 H       1  UNL1        0.0235
     63 H           2.9030   -4.8910    0.0000 H       1  UNL1        0.0235
     64 H           2.0560   -4.6640    0.0000 H       1  UNL1        0.0235
     65 H           1.8291   -5.5110    0.0000 H       1  UNL1        0.0235
     66 H          10.7942    6.5530    0.0000 H       1  UNL1        0.0235
     67 H          10.4142    6.9330    0.0000 H       1  UNL1        0.0235
     68 H           9.7942    7.5530    0.0000 H       1  UNL1        0.0235
     69 H           9.1742    6.9330    0.0000 H       1  UNL1        0.0235
@<TRIPOS>BOND
     1     1     3    1
     2     1    23    1
     3     2     4    1
     4     2    22    1
     5     3     6    1
     6     4     5    1
     7     5    31    1
     8     6    30    1
     9     7    30    1
    10     7    31    1
    11     8    31    2
    12     9    30    2
    13    10    12    1
    14    10    16    1
    15    10    17    1
    16    10    32    1
    17    11    13    1
    18    11    14    1
    19    11    15    1
    20    11    33    1
    21    12    25    1
    22    12    26    1
    23    12    27    1
    24    13    24    1
    25    13    28    1
    26    13    29    1
    27    14    19    1
    28    14    38    1
    29    14    41    1
    30    15    18    1
    31    15    34    1
    32    15    35    1
    33    16    20    1
    34    16    36    1
    35    16    37    1
    36    17    21    1
    37    17    39    1
    38    17    40    1
    39    18    23    1
    40    18    46    1
    41    18    47    1
    42    19    23    1
    43    19    48    1
    44    19    49    1
    45    20    22    1
    46    20    42    1
    47    20    45    1
    48    21    22    1
    49    21    43    1
    50    21    44    1
    51    22    50    1
    52    23    51    1
    53    24    57    1
    54    24    58    1
    55    24    59    1
    56    25    67    1
    57    25    68    1
    58    25    69    1
    59    26    52    1
    60    26    53    1
    61    26    66    1
    62    27    54    1
    63    27    55    1
    64    27    56    1
    65    28    60    1
    66    28    61    1
    67    28    62    1
    68    29    63    1
    69    29    64    1
    70    29    65    1
