@<TRIPOS>MOLECULE
IMPHY001824
 27 29 0 0 0
SMALL
GASTEIGER

@<TRIPOS>ATOM
      1 S           4.4026    1.3786    0.0000 S.2     1  UNL1       -0.0966
      2 O           2.8660   -2.1866    0.0000 O.3     1  UNL1       -0.3718
      3 O           6.2619   -1.1866    0.0000 O.2     1  UNL1       -0.2919
      4 C           3.7320   -1.6866    0.0000 C.3     1  UNL1        0.0876
      5 C           3.7320   -0.6866    0.0000 C.2     1  UNL1       -0.0292
      6 C           2.8660   -0.1866    0.0000 C.3     1  UNL1       -0.0262
      7 C           4.6783   -1.9914    0.0000 C.3     1  UNL1        0.0406
      8 C           4.6783   -0.3819    0.0000 C.2     1  UNL1        0.0329
      9 C           2.0000   -0.6866    0.0000 C.3     1  UNL1       -0.0256
     10 C           2.0000   -1.6866    0.0000 C.3     1  UNL1        0.0487
     11 C           5.2619   -1.1866    0.0000 C.2     1  UNL1        0.1670
     12 C           4.9889    0.5686    0.0000 C.ar    1  UNL1        0.0227
     13 C           5.9405    0.8760    0.0000 C.ar    1  UNL1       -0.0468
     14 C           5.9422    1.8760    0.0000 C.ar    1  UNL1       -0.0541
     15 C           4.9917    2.1866    0.0000 C.ar    1  UNL1       -0.0237
     16 H           3.8220   -2.5319    0.0000 H       1  UNL1        0.0647
     17 H           3.2646    0.2883    0.0000 H       1  UNL1        0.0312
     18 H           2.4675    0.2883    0.0000 H       1  UNL1        0.0312
     19 H           4.4272   -2.5583    0.0000 H       1  UNL1        0.0374
     20 H           5.2156   -2.3006    0.0000 H       1  UNL1        0.0374
     21 H           1.7880   -0.1040    0.0000 H       1  UNL1        0.0290
     22 H           1.3894   -0.7943    0.0000 H       1  UNL1        0.0290
     23 H           1.3894   -1.5790    0.0000 H       1  UNL1        0.0560
     24 H           1.7880   -2.2692    0.0000 H       1  UNL1        0.0560
     25 H           6.4415    0.5107    0.0000 H       1  UNL1        0.0629
     26 H           6.4445    2.2395    0.0000 H       1  UNL1        0.0623
     27 H           4.8012    2.7766    0.0000 H       1  UNL1        0.0693
@<TRIPOS>BOND
     1     1    12   ar
     2     1    15   ar
     3     2     4    1
     4     2    10    1
     5     3    11    2
     6     4     5    1
     7     4     7    1
     8     4    16    1
     9     5     6    1
    10     5     8    2
    11     6     9    1
    12     6    17    1
    13     6    18    1
    14     7    11    1
    15     7    19    1
    16     7    20    1
    17     8    11    1
    18     8    12    1
    19     9    10    1
    20     9    21    1
    21     9    22    1
    22    10    23    1
    23    10    24    1
    24    12    13   ar
    25    13    14   ar
    26    13    25    1
    27    14    15   ar
    28    14    26    1
    29    15    27    1
