@<TRIPOS>MOLECULE
IMPHY008906
 107 111 0 0 0
SMALL
GASTEIGER

@<TRIPOS>ATOM
      1 O           8.0949   -0.7290    0.0000 O.3     1  UNL1       -0.3915
      2 O           7.1994    4.8375    0.0000 O.3     1  UNL1       -0.3915
      3 O           6.0010   -2.1558    0.0000 O.3     1  UNL1       -0.3422
      4 O          10.9838    5.0045    0.0000 O.3     1  UNL1       -0.3912
      5 O           4.2690   -2.1558    0.0000 O.3     1  UNL1       -0.3405
      6 O           6.0010   -4.1558    0.0000 O.3     1  UNL1       -0.3841
      7 O           4.2690   -5.1558    0.0000 O.3     1  UNL1       -0.3864
      8 O           2.5369   -4.1558    0.0000 O.3     1  UNL1       -0.3865
      9 O           2.5369   -1.1558    0.0000 O.3     1  UNL1       -0.3924
     10 C           7.1630    2.1226    0.0000 C.3     1  UNL1       -0.0206
     11 C           6.4951    1.3783    0.0000 C.3     1  UNL1       -0.0208
     12 C           8.1415    1.9164    0.0000 C.3     1  UNL1       -0.0269
     13 C           8.8490    2.6808    0.0000 C.3     1  UNL1       -0.0228
     14 C           6.8058    0.4278    0.0000 C.3     1  UNL1       -0.0036
     15 C           8.5330    3.6734    0.0000 C.3     1  UNL1       -0.0018
     16 C           6.8241    3.1076    0.0000 C.3     1  UNL1       -0.0204
     17 C           8.4521    0.9659    0.0000 C.3     1  UNL1       -0.0227
     18 C           6.0010   -0.1558    0.0000 C.3     1  UNL1       -0.0063
     19 C           7.7843    0.2216    0.0000 C.3     1  UNL1        0.0592
     20 C           5.5010    1.3740    0.0000 C.3     1  UNL1       -0.0464
     21 C           7.5138    3.8882    0.0000 C.3     1  UNL1        0.0597
     22 C           9.2514    4.4865    0.0000 C.3     1  UNL1       -0.0033
     23 C           5.1963    0.4278    0.0000 C.3     1  UNL1       -0.0467
     24 C           9.9052    2.4326    0.0000 C.3     1  UNL1       -0.0446
     25 C           6.3140    2.6510    0.0000 C.3     1  UNL1       -0.0587
     26 C           5.8781    2.1652    0.0000 C.3     1  UNL1       -0.0587
     27 C           9.1523    1.7280    0.0000 C.3     1  UNL1       -0.0589
     28 C           6.0010   -1.1558    0.0000 C.3     1  UNL1        0.0733
     29 C          10.3131    4.2628    0.0000 C.3     1  UNL1        0.0607
     30 C          10.6422    3.2289    0.0000 C.3     1  UNL1       -0.0258
     31 C           9.4538    5.4658    0.0000 C.3     1  UNL1       -0.0571
     32 C           8.5045    5.1515    0.0000 C.3     1  UNL1       -0.0571
     33 C           7.0010   -1.1558    0.0000 C.3     1  UNL1       -0.0202
     34 C           5.0010   -1.1558    0.0000 C.3     1  UNL1       -0.0354
     35 C           7.5010   -2.0218    0.0000 C.3     1  UNL1       -0.0319
     36 C           5.1350   -2.6558    0.0000 C.3     1  UNL1        0.1885
     37 C           5.1350   -3.6558    0.0000 C.3     1  UNL1        0.1341
     38 C           8.5010   -2.0218    0.0000 C.2     1  UNL1       -0.0852
     39 C           4.2690   -4.1558    0.0000 C.3     1  UNL1        0.1141
     40 C           3.4030   -2.6558    0.0000 C.3     1  UNL1        0.1130
     41 C           3.4030   -3.6558    0.0000 C.3     1  UNL1        0.1119
     42 C           9.0010   -2.8879    0.0000 C.2     1  UNL1       -0.0796
     43 C           2.5369   -2.1558    0.0000 C.3     1  UNL1        0.0730
     44 C          10.0010   -2.8879    0.0000 C.3     1  UNL1       -0.0440
     45 C           8.5010   -3.7539    0.0000 C.3     1  UNL1       -0.0440
     46 H           8.9718    1.7347    0.0000 H       1  UNL1        0.0312
     47 H           6.9828   -0.4036    0.0000 H       1  UNL1        0.0335
     48 H           8.2658    4.4803    0.0000 H       1  UNL1        0.0337
     49 H           6.4366    3.5915    0.0000 H       1  UNL1        0.0296
     50 H           6.2810    2.8086    0.0000 H       1  UNL1        0.0296
     51 H           5.2438   -0.5420    0.0000 H       1  UNL1        0.0332
     52 H           8.8347    0.4780    0.0000 H       1  UNL1        0.0293
     53 H           8.9990    1.2579    0.0000 H       1  UNL1        0.0293
     54 H           7.3702   -0.2399    0.0000 H       1  UNL1        0.0596
     55 H           5.5635    1.9908    0.0000 H       1  UNL1        0.0271
     56 H           4.8942    1.5010    0.0000 H       1  UNL1        0.0271
     57 H           7.9270    4.3505    0.0000 H       1  UNL1        0.0596
     58 H           4.6294    0.6788    0.0000 H       1  UNL1        0.0269
     59 H           4.8871   -0.1096    0.0000 H       1  UNL1        0.0269
     60 H           9.6622    1.8622    0.0000 H       1  UNL1        0.0271
     61 H          10.4256    2.0956    0.0000 H       1  UNL1        0.0271
     62 H           6.6416    3.1774    0.0000 H       1  UNL1        0.0235
     63 H           5.7876    2.9787    0.0000 H       1  UNL1        0.0235
     64 H           5.9864    2.1247    0.0000 H       1  UNL1        0.0235
     65 H           6.3660    2.5478    0.0000 H       1  UNL1        0.0235
     66 H           5.4955    2.6532    0.0000 H       1  UNL1        0.0235
     67 H           5.3902    1.7827    0.0000 H       1  UNL1        0.0235
     68 H           8.5615    1.5399    0.0000 H       1  UNL1        0.0235
     69 H           9.3404    1.1372    0.0000 H       1  UNL1        0.0235
     70 H           9.7431    1.9160    0.0000 H       1  UNL1        0.0235
     71 H          10.9190    4.1314    0.0000 H       1  UNL1        0.0599
     72 H          11.0184    2.7361    0.0000 H       1  UNL1        0.0290
     73 H          11.1921    3.5153    0.0000 H       1  UNL1        0.0290
     74 H           8.9168    5.6146    0.0000 H       1  UNL1        0.0236
     75 H           8.0414    5.5638    0.0000 H       1  UNL1        0.0236
     76 H          10.0610    5.3403    0.0000 H       1  UNL1        0.0236
     77 H           9.5793    6.0730    0.0000 H       1  UNL1        0.0236
     78 H           8.8467    5.5914    0.0000 H       1  UNL1        0.0236
     79 H           8.0922    4.6884    0.0000 H       1  UNL1        0.0236
     80 H           8.7016   -0.8568    0.0000 H       1  UNL1        0.2098
     81 H           6.5923    4.9630    0.0000 H       1  UNL1        0.2098
     82 H           7.5836   -0.9438    0.0000 H       1  UNL1        0.0296
     83 H           6.8934   -0.5452    0.0000 H       1  UNL1        0.0296
     84 H           5.0010   -0.5358    0.0000 H       1  UNL1        0.0257
     85 H           4.3810   -1.1558    0.0000 H       1  UNL1        0.0257
     86 H           5.0010   -1.7758    0.0000 H       1  UNL1        0.0257
     87 H          11.5899    4.8743    0.0000 H       1  UNL1        0.2098
     88 H           6.9184   -2.2339    0.0000 H       1  UNL1        0.0308
     89 H           7.6087   -2.6324    0.0000 H       1  UNL1        0.0308
     90 H           5.1350   -2.0358    0.0000 H       1  UNL1        0.0938
     91 H           5.1350   -4.2758    0.0000 H       1  UNL1        0.0671
     92 H           8.8110   -1.4849    0.0000 H       1  UNL1        0.0571
     93 H           3.7320   -4.4658    0.0000 H       1  UNL1        0.0648
     94 H           3.4030   -2.0358    0.0000 H       1  UNL1        0.0647
     95 H           2.8660   -3.3458    0.0000 H       1  UNL1        0.0647
     96 H           6.0010   -4.7758    0.0000 H       1  UNL1        0.2101
     97 H           1.9264   -2.0482    0.0000 H       1  UNL1        0.0584
     98 H           2.3249   -2.7384    0.0000 H       1  UNL1        0.0584
     99 H           3.7320   -5.4658    0.0000 H       1  UNL1        0.2100
    100 H           7.9641   -3.4439    0.0000 H       1  UNL1        0.0274
    101 H           8.1910   -4.2908    0.0000 H       1  UNL1        0.0274
    102 H           9.0380   -4.0639    0.0000 H       1  UNL1        0.0274
    103 H          10.0010   -3.5079    0.0000 H       1  UNL1        0.0274
    104 H          10.6210   -2.8879    0.0000 H       1  UNL1        0.0274
    105 H          10.0010   -2.2679    0.0000 H       1  UNL1        0.0274
    106 H           2.0000   -3.8458    0.0000 H       1  UNL1        0.2100
    107 H           2.0000   -0.8458    0.0000 H       1  UNL1        0.2095
@<TRIPOS>BOND
     1    19     1    1
     2     1    80    1
     3    21     2    1
     4     2    81    1
     5    28     3    1
     6    36     3    1
     7    29     4    1
     8     4    87    1
     9     5    36    1
    10     5    40    1
    11    37     6    1
    12     6    96    1
    13    39     7    1
    14     7    99    1
    15    41     8    1
    16     8   106    1
    17     9    43    1
    18     9   107    1
    19    10    11    1
    20    10    12    1
    21    10    16    1
    22    10    25    1
    23    11    14    1
    24    11    20    1
    25    11    26    1
    26    12    13    1
    27    12    17    1
    28    12    46    1
    29    13    15    1
    30    13    24    1
    31    13    27    1
    32    14    18    1
    33    14    19    1
    34    14    47    1
    35    15    21    1
    36    15    22    1
    37    15    48    1
    38    16    21    1
    39    16    49    1
    40    16    50    1
    41    17    19    1
    42    17    52    1
    43    17    53    1
    44    18    23    1
    45    18    28    1
    46    18    51    1
    47    19    54    1
    48    20    23    1
    49    20    55    1
    50    20    56    1
    51    21    57    1
    52    22    29    1
    53    22    31    1
    54    22    32    1
    55    23    58    1
    56    23    59    1
    57    24    30    1
    58    24    60    1
    59    24    61    1
    60    25    62    1
    61    25    63    1
    62    25    64    1
    63    26    65    1
    64    26    66    1
    65    26    67    1
    66    27    68    1
    67    27    69    1
    68    27    70    1
    69    28    33    1
    70    28    34    1
    71    29    30    1
    72    29    71    1
    73    30    72    1
    74    30    73    1
    75    31    76    1
    76    31    77    1
    77    31    78    1
    78    32    74    1
    79    32    75    1
    80    32    79    1
    81    33    35    1
    82    33    82    1
    83    33    83    1
    84    34    84    1
    85    34    85    1
    86    34    86    1
    87    35    38    1
    88    35    88    1
    89    35    89    1
    90    36    37    1
    91    36    90    1
    92    37    39    1
    93    37    91    1
    94    38    42    2
    95    38    92    1
    96    39    41    1
    97    39    93    1
    98    40    41    1
    99    40    43    1
   100    40    94    1
   101    41    95    1
   102    42    44    1
   103    42    45    1
   104    43    97    1
   105    43    98    1
   106    44   103    1
   107    44   104    1
   108    44   105    1
   109    45   100    1
   110    45   101    1
   111    45   102    1
