@<TRIPOS>MOLECULE
IMPHY015735
 32 31 0 0 0
SMALL
GASTEIGER

@<TRIPOS>ATOM
      1 O           7.1962    0.2500    0.0000 O.3     1  UNL1       -0.4645
      2 O           8.0622   -1.2500    0.0000 O.2     1  UNL1       -0.2506
      3 C           4.5981   -0.2500    0.0000 C.3     1  UNL1       -0.0500
      4 C           3.7320    0.2500    0.0000 C.3     1  UNL1       -0.0532
      5 C           5.4641    0.2500    0.0000 C.3     1  UNL1       -0.0185
      6 C           2.8660   -0.2500    0.0000 C.3     1  UNL1       -0.0559
      7 C           6.3301   -0.2500    0.0000 C.3     1  UNL1        0.0925
      8 C           8.9282    0.2500    0.0000 C.3     1  UNL1        0.0508
      9 C           2.0000    0.2500    0.0000 C.3     1  UNL1       -0.0653
     10 C           8.0622   -0.2500    0.0000 C.2     1  UNL1        0.3097
     11 C           9.7942   -0.2500    0.0000 C.3     1  UNL1       -0.0525
     12 C           8.9282    1.2500    0.0000 C.3     1  UNL1       -0.0525
     13 H           4.1996   -0.7249    0.0000 H       1  UNL1        0.0266
     14 H           4.9966   -0.7249    0.0000 H       1  UNL1        0.0266
     15 H           4.1306    0.7249    0.0000 H       1  UNL1        0.0265
     16 H           3.3335    0.7249    0.0000 H       1  UNL1        0.0265
     17 H           5.8626    0.7249    0.0000 H       1  UNL1        0.0298
     18 H           5.0656    0.7249    0.0000 H       1  UNL1        0.0298
     19 H           2.4675   -0.7249    0.0000 H       1  UNL1        0.0263
     20 H           3.2646   -0.7249    0.0000 H       1  UNL1        0.0263
     21 H           5.9316   -0.7249    0.0000 H       1  UNL1        0.0697
     22 H           6.7287   -0.7249    0.0000 H       1  UNL1        0.0697
     23 H           9.4651    0.5600    0.0000 H       1  UNL1        0.0408
     24 H           2.3100    0.7869    0.0000 H       1  UNL1        0.0230
     25 H           1.4631    0.5600    0.0000 H       1  UNL1        0.0230
     26 H           1.6900   -0.2869    0.0000 H       1  UNL1        0.0230
     27 H           9.4842   -0.7869    0.0000 H       1  UNL1        0.0237
     28 H          10.3312   -0.5600    0.0000 H       1  UNL1        0.0237
     29 H          10.1042    0.2869    0.0000 H       1  UNL1        0.0237
     30 H           9.5482    1.2500    0.0000 H       1  UNL1        0.0237
     31 H           8.9282    1.8700    0.0000 H       1  UNL1        0.0237
     32 H           8.3082    1.2500    0.0000 H       1  UNL1        0.0237
@<TRIPOS>BOND
     1     1     7    1
     2     1    10    1
     3     2    10    2
     4     3     4    1
     5     3     5    1
     6     3    13    1
     7     3    14    1
     8     4     6    1
     9     4    15    1
    10     4    16    1
    11     5     7    1
    12     5    17    1
    13     5    18    1
    14     6     9    1
    15     6    19    1
    16     6    20    1
    17     7    21    1
    18     7    22    1
    19     8    10    1
    20     8    11    1
    21     8    12    1
    22     8    23    1
    23     9    24    1
    24     9    25    1
    25     9    26    1
    26    11    27    1
    27    11    28    1
    28    11    29    1
    29    12    30    1
    30    12    31    1
    31    12    32    1
