@<TRIPOS>MOLECULE
IMPHY003738
 63 66 0 0 0
SMALL
GASTEIGER

@<TRIPOS>ATOM
      1 O           9.4893    0.8589    0.0000 O.3     1  UNL1       -0.3883
      2 O           6.0010    1.7500    0.0000 O.2     1  UNL1       -0.4701
      3 O           6.8671    0.2500    0.0000 O.3     1  UNL1       -0.3083
      4 O           5.1350    0.2500    0.0000 O.3     1  UNL1       -0.3394
      5 O           6.8671   -1.7500    0.0000 O.3     1  UNL1       -0.4500
      6 O           5.1350   -2.7500    0.0000 O.3     1  UNL1       -0.3853
      7 O           6.0010    4.7500    0.0000 O.3     1  UNL1       -0.4773
      8 O           3.4030   -1.7500    0.0000 O.3     1  UNL1       -0.3864
      9 O           7.7331    4.7500    0.0000 O.2     1  UNL1       -0.2454
     10 O           2.5369   -0.2500    0.0000 O.3     1  UNL1       -0.3924
     11 O           6.0010   -3.2500    0.0000 O.2     1  UNL1       -0.2449
     12 O          10.3312   -4.7500    0.0000 O.3     1  UNL1       -0.5068
     13 C           7.7331    1.7500    0.0000 C.3     1  UNL1        0.0572
     14 C           8.6793    1.4453    0.0000 C.3     1  UNL1        0.0724
     15 C           7.7331    2.7500    0.0000 C.3     1  UNL1        0.0050
     16 C           9.2629    2.2500    0.0000 C.3     1  UNL1       -0.0232
     17 C           8.6793    3.0547    0.0000 C.3     1  UNL1       -0.0427
     18 C           6.8671    1.2500    0.0000 C.3     1  UNL1        0.2095
     19 C           6.8671    3.2500    0.0000 C.2     1  UNL1        0.0742
     20 C           8.3719    0.4937    0.0000 C.3     1  UNL1       -0.0356
     21 C           6.0010    2.7500    0.0000 C.2     1  UNL1        0.0981
     22 C           6.0010   -0.2500    0.0000 C.3     1  UNL1        0.2029
     23 C           6.0010   -1.2500    0.0000 C.3     1  UNL1        0.1821
     24 C           5.1350   -1.7500    0.0000 C.3     1  UNL1        0.1251
     25 C           6.8671    4.2500    0.0000 C.2     1  UNL1        0.3360
     26 C           4.2690   -1.2500    0.0000 C.3     1  UNL1        0.1130
     27 C           4.2690   -0.2500    0.0000 C.3     1  UNL1        0.1131
     28 C           3.4030    0.2500    0.0000 C.3     1  UNL1        0.0730
     29 C           6.8671   -2.7500    0.0000 C.2     1  UNL1        0.3397
     30 C           7.7331   -3.2500    0.0000 C.ar    1  UNL1        0.0592
     31 C           7.7331   -4.2500    0.0000 C.ar    1  UNL1       -0.0443
     32 C           8.5991   -2.7500    0.0000 C.ar    1  UNL1       -0.0443
     33 C           8.5991   -4.7500    0.0000 C.ar    1  UNL1       -0.0194
     34 C           9.4651   -3.2500    0.0000 C.ar    1  UNL1       -0.0194
     35 C           9.4651   -4.2500    0.0000 C.ar    1  UNL1        0.1169
     36 H           7.8230    0.9048    0.0000 H       1  UNL1        0.0395
     37 H           7.8230    3.5952    0.0000 H       1  UNL1        0.0358
     38 H           9.7238    1.8353    0.0000 H       1  UNL1        0.0293
     39 H           9.7238    2.6647    0.0000 H       1  UNL1        0.0293
     40 H           9.2167    3.3640    0.0000 H       1  UNL1        0.0272
     41 H           8.4283    3.6216    0.0000 H       1  UNL1        0.0272
     42 H           7.4040    0.9400    0.0000 H       1  UNL1        0.1060
     43 H           7.7820    0.6842    0.0000 H       1  UNL1        0.0257
     44 H           8.1814   -0.0963    0.0000 H       1  UNL1        0.0257
     45 H           8.9619    0.3031    0.0000 H       1  UNL1        0.0257
     46 H          10.0553    1.1120    0.0000 H       1  UNL1        0.2102
     47 H           5.4641    3.0600    0.0000 H       1  UNL1        0.1029
     48 H           6.0010    0.3700    0.0000 H       1  UNL1        0.0951
     49 H           6.0010   -1.8700    0.0000 H       1  UNL1        0.0813
     50 H           4.5981   -2.0600    0.0000 H       1  UNL1        0.0659
     51 H           3.7320   -0.9400    0.0000 H       1  UNL1        0.0647
     52 H           4.2690    0.3700    0.0000 H       1  UNL1        0.0647
     53 H           3.8015    0.7249    0.0000 H       1  UNL1        0.0584
     54 H           3.0044    0.7249    0.0000 H       1  UNL1        0.0584
     55 H           4.5981   -3.0600    0.0000 H       1  UNL1        0.2101
     56 H           3.4030   -2.3700    0.0000 H       1  UNL1        0.2100
     57 H           6.0010    5.3700    0.0000 H       1  UNL1        0.2954
     58 H           2.0000    0.0600    0.0000 H       1  UNL1        0.2095
     59 H           7.1962   -4.5600    0.0000 H       1  UNL1        0.0627
     60 H           8.5991   -2.1300    0.0000 H       1  UNL1        0.0627
     61 H           8.5991   -5.3700    0.0000 H       1  UNL1        0.0654
     62 H          10.0021   -2.9400    0.0000 H       1  UNL1        0.0654
     63 H          10.3312   -5.3700    0.0000 H       1  UNL1        0.2921
@<TRIPOS>BOND
     1    14     1    1
     2     1    46    1
     3     2    18    1
     4     2    21    1
     5    18     3    1
     6    22     3    1
     7     4    22    1
     8     4    27    1
     9    23     5    1
    10     5    29    1
    11    24     6    1
    12     6    55    1
    13     7    25    1
    14     7    57    1
    15    26     8    1
    16     8    56    1
    17     9    25    2
    18    10    28    1
    19    10    58    1
    20    11    29    2
    21    12    35    1
    22    12    63    1
    23    13    14    1
    24    13    15    1
    25    13    18    1
    26    13    36    1
    27    14    16    1
    28    14    20    1
    29    15    17    1
    30    15    19    1
    31    15    37    1
    32    16    17    1
    33    16    38    1
    34    16    39    1
    35    17    40    1
    36    17    41    1
    37    18    42    1
    38    19    21    2
    39    19    25    1
    40    20    43    1
    41    20    44    1
    42    20    45    1
    43    21    47    1
    44    22    23    1
    45    22    48    1
    46    23    24    1
    47    23    49    1
    48    24    26    1
    49    24    50    1
    50    26    27    1
    51    26    51    1
    52    27    28    1
    53    27    52    1
    54    28    53    1
    55    28    54    1
    56    29    30    1
    57    30    31   ar
    58    30    32   ar
    59    31    33   ar
    60    31    59    1
    61    32    34   ar
    62    32    60    1
    63    33    35   ar
    64    33    61    1
    65    34    35   ar
    66    34    62    1
