@<TRIPOS>MOLECULE
IMPHY009633
 16 15 0 0 0
SMALL
GASTEIGER

@<TRIPOS>ATOM
      1 O           2.5369   -0.2500    0.0000 O.3     1  UNL1       -0.3950
      2 C           4.2690   -0.2500    0.0000 C.3     1  UNL1       -0.0263
      3 C           5.1350    0.2500    0.0000 C.3     1  UNL1       -0.0329
      4 C           3.4030    0.2500    0.0000 C.3     1  UNL1        0.0445
      5 C           6.0010   -0.2500    0.0000 C.2     1  UNL1       -0.0910
      6 C           6.8671    0.2500    0.0000 C.2     1  UNL1       -0.1026
      7 H           3.8705   -0.7249    0.0000 H       1  UNL1        0.0290
      8 H           4.6675   -0.7249    0.0000 H       1  UNL1        0.0290
      9 H           5.5335    0.7249    0.0000 H       1  UNL1        0.0308
     10 H           4.7365    0.7249    0.0000 H       1  UNL1        0.0308
     11 H           3.8015    0.7249    0.0000 H       1  UNL1        0.0557
     12 H           3.0044    0.7249    0.0000 H       1  UNL1        0.0557
     13 H           6.0010   -0.8700    0.0000 H       1  UNL1        0.0566
     14 H           2.0000    0.0600    0.0000 H       1  UNL1        0.2094
     15 H           7.4040   -0.0600    0.0000 H       1  UNL1        0.0532
     16 H           6.8671    0.8700    0.0000 H       1  UNL1        0.0532
@<TRIPOS>BOND
     1     1     4    1
     2     1    14    1
     3     2     3    1
     4     2     4    1
     5     2     7    1
     6     2     8    1
     7     3     5    1
     8     3     9    1
     9     3    10    1
    10     4    11    1
    11     4    12    1
    12     5     6    2
    13     5    13    1
    14     6    15    1
    15     6    16    1
