@<TRIPOS>MOLECULE
IMPHY006988
 14 15 0 0 0
SMALL
GASTEIGER

@<TRIPOS>ATOM
      1 O           2.8660    1.8100    0.0000 O.2     1  UNL1       -0.2635
      2 N           4.6783    0.6147    0.0000 N.ar    1  UNL1       -0.3389
      3 N           2.8660   -1.1900    0.0000 N.ar    1  UNL1       -0.3291
      4 N           4.6783   -0.9947    0.0000 N.ar    1  UNL1       -0.2182
      5 N           2.0000    0.3100    0.0000 N.ar    1  UNL1       -0.1977
      6 C           3.7320    0.3100    0.0000 C.ar    1  UNL1        0.1502
      7 C           3.7320   -0.6900    0.0000 C.ar    1  UNL1        0.1626
      8 C           2.8660    0.8100    0.0000 C.ar    1  UNL1        0.2986
      9 C           5.2619   -0.1900    0.0000 C.ar    1  UNL1        0.0963
     10 C           2.0000   -0.6900    0.0000 C.ar    1  UNL1        0.0988
     11 H           4.8709    1.2040    0.0000 H       1  UNL1        0.1670
     12 H           2.8660   -1.8100    0.0000 H       1  UNL1        0.1682
     13 H           5.8819   -0.1900    0.0000 H       1  UNL1        0.1027
     14 H           1.4631   -1.0000    0.0000 H       1  UNL1        0.1028
@<TRIPOS>BOND
     1     1     8    2
     2     2     6   ar
     3     2     9   ar
     4     2    11    1
     5     3     7   ar
     6     3    10   ar
     7     3    12    1
     8     4     7   ar
     9     4     9   ar
    10     5     8   ar
    11     5    10   ar
    12     6     7   ar
    13     6     8   ar
    14     9    13    1
    15    10    14    1
