@<TRIPOS>MOLECULE
IMPHY011708
 96 97 0 0 0
SMALL
GASTEIGER

@<TRIPOS>ATOM
      1 C           3.0000   -4.5000    0.0000 C.3     1  UNL1       -0.0099
      2 C          15.9904    5.0000    0.0000 C.3     1  UNL1       -0.0099
      3 C           3.0000   -5.5000    0.0000 C.3     1  UNL1       -0.0436
      4 C          16.8564    4.5000    0.0000 C.3     1  UNL1       -0.0436
      5 C           3.8660   -6.0000    0.0000 C.3     1  UNL1       -0.0486
      6 C          16.8564    3.5000    0.0000 C.3     1  UNL1       -0.0486
      7 C           3.8660   -4.0000    0.0000 C.2     1  UNL1       -0.0427
      8 C          15.1244    4.5000    0.0000 C.2     1  UNL1       -0.0427
      9 C           4.7320   -5.5000    0.0000 C.3     1  UNL1       -0.0314
     10 C          15.9904    3.0000    0.0000 C.3     1  UNL1       -0.0314
     11 C           4.7320   -4.5000    0.0000 C.2     1  UNL1       -0.0689
     12 C          15.1244    3.5000    0.0000 C.2     1  UNL1       -0.0689
     13 C           2.0000   -4.5000    0.0000 C.3     1  UNL1       -0.0558
     14 C           2.5000   -3.6340    0.0000 C.3     1  UNL1       -0.0558
     15 C          16.4904    5.8660    0.0000 C.3     1  UNL1       -0.0558
     16 C          15.4904    5.8660    0.0000 C.3     1  UNL1       -0.0558
     17 C           3.8660   -3.0000    0.0000 C.2     1  UNL1       -0.0579
     18 C          14.2583    5.0000    0.0000 C.2     1  UNL1       -0.0579
     19 C           5.5981   -4.0000    0.0000 C.3     1  UNL1       -0.0432
     20 C          14.2583    3.0000    0.0000 C.3     1  UNL1       -0.0432
     21 C           4.7320   -2.5000    0.0000 C.2     1  UNL1       -0.0586
     22 C          13.3923    4.5000    0.0000 C.2     1  UNL1       -0.0586
     23 C           4.7320   -1.5000    0.0000 C.2     1  UNL1       -0.0504
     24 C          12.5263    5.0000    0.0000 C.2     1  UNL1       -0.0504
     25 C           3.8660   -1.0000    0.0000 C.3     1  UNL1       -0.0397
     26 C          12.5263    6.0000    0.0000 C.3     1  UNL1       -0.0397
     27 C           5.5981   -1.0000    0.0000 C.2     1  UNL1       -0.0588
     28 C          11.6603    4.5000    0.0000 C.2     1  UNL1       -0.0588
     29 C           5.5981    0.0000    0.0000 C.2     1  UNL1       -0.0613
     30 C          10.7942    5.0000    0.0000 C.2     1  UNL1       -0.0613
     31 C           6.4641    0.5000    0.0000 C.2     1  UNL1       -0.0588
     32 C           9.9282    4.5000    0.0000 C.2     1  UNL1       -0.0588
     33 C           6.4641    1.5000    0.0000 C.2     1  UNL1       -0.0504
     34 C           9.0622    5.0000    0.0000 C.2     1  UNL1       -0.0504
     35 C           5.5981    2.0000    0.0000 C.3     1  UNL1       -0.0397
     36 C           9.0622    6.0000    0.0000 C.3     1  UNL1       -0.0397
     37 C           7.3301    2.0000    0.0000 C.2     1  UNL1       -0.0588
     38 C           8.1962    4.5000    0.0000 C.2     1  UNL1       -0.0588
     39 C           7.3301    3.0000    0.0000 C.2     1  UNL1       -0.0615
     40 C           8.1962    3.5000    0.0000 C.2     1  UNL1       -0.0615
     41 H           2.3894   -5.3923    0.0000 H       1  UNL1        0.0274
     42 H           2.7880   -6.0826    0.0000 H       1  UNL1        0.0274
     43 H          17.4670    4.3923    0.0000 H       1  UNL1        0.0274
     44 H          17.0685    5.0826    0.0000 H       1  UNL1        0.0274
     45 H           3.4675   -6.4750    0.0000 H       1  UNL1        0.0269
     46 H           4.2646   -6.4750    0.0000 H       1  UNL1        0.0269
     47 H          17.0685    2.9174    0.0000 H       1  UNL1        0.0269
     48 H          17.4670    3.6077    0.0000 H       1  UNL1        0.0269
     49 H           4.9441   -6.0826    0.0000 H       1  UNL1        0.0310
     50 H           5.3426   -5.3923    0.0000 H       1  UNL1        0.0310
     51 H          15.5919    2.5250    0.0000 H       1  UNL1        0.0310
     52 H          16.3889    2.5250    0.0000 H       1  UNL1        0.0310
     53 H           2.0000   -3.8800    0.0000 H       1  UNL1        0.0238
     54 H           1.3800   -4.5000    0.0000 H       1  UNL1        0.0238
     55 H           2.0000   -5.1200    0.0000 H       1  UNL1        0.0238
     56 H           3.0369   -3.3240    0.0000 H       1  UNL1        0.0238
     57 H           2.1900   -3.0970    0.0000 H       1  UNL1        0.0238
     58 H           1.9631   -3.9440    0.0000 H       1  UNL1        0.0238
     59 H          17.0273    5.5560    0.0000 H       1  UNL1        0.0238
     60 H          16.8004    6.4030    0.0000 H       1  UNL1        0.0238
     61 H          15.9534    6.1760    0.0000 H       1  UNL1        0.0238
     62 H          16.0273    6.1760    0.0000 H       1  UNL1        0.0238
     63 H          15.1804    6.4030    0.0000 H       1  UNL1        0.0238
     64 H          14.9534    5.5560    0.0000 H       1  UNL1        0.0238
     65 H           3.3291   -2.6900    0.0000 H       1  UNL1        0.0621
     66 H          14.2583    5.6200    0.0000 H       1  UNL1        0.0621
     67 H           5.9081   -4.5369    0.0000 H       1  UNL1        0.0275
     68 H           6.1350   -3.6900    0.0000 H       1  UNL1        0.0275
     69 H           5.2881   -3.4631    0.0000 H       1  UNL1        0.0275
     70 H          13.9483    3.5369    0.0000 H       1  UNL1        0.0275
     71 H          13.7214    2.6900    0.0000 H       1  UNL1        0.0275
     72 H          14.5683    2.4631    0.0000 H       1  UNL1        0.0275
     73 H           5.2690   -2.8100    0.0000 H       1  UNL1        0.0620
     74 H          13.3923    3.8800    0.0000 H       1  UNL1        0.0620
     75 H           4.1760   -0.4631    0.0000 H       1  UNL1        0.0278
     76 H           3.3291   -0.6900    0.0000 H       1  UNL1        0.0278
     77 H           3.5560   -1.5369    0.0000 H       1  UNL1        0.0278
     78 H          13.1463    6.0000    0.0000 H       1  UNL1        0.0278
     79 H          12.5263    6.6200    0.0000 H       1  UNL1        0.0278
     80 H          11.9063    6.0000    0.0000 H       1  UNL1        0.0278
     81 H           6.1350   -1.3100    0.0000 H       1  UNL1        0.0620
     82 H          11.6603    3.8800    0.0000 H       1  UNL1        0.0620
     83 H           5.0611    0.3100    0.0000 H       1  UNL1        0.0618
     84 H          10.7942    5.6200    0.0000 H       1  UNL1        0.0618
     85 H           7.0010    0.1900    0.0000 H       1  UNL1        0.0620
     86 H           9.9282    3.8800    0.0000 H       1  UNL1        0.0620
     87 H           5.9081    2.5369    0.0000 H       1  UNL1        0.0278
     88 H           5.0611    2.3100    0.0000 H       1  UNL1        0.0278
     89 H           5.2881    1.4631    0.0000 H       1  UNL1        0.0278
     90 H           9.6822    6.0000    0.0000 H       1  UNL1        0.0278
     91 H           9.0622    6.6200    0.0000 H       1  UNL1        0.0278
     92 H           8.4422    6.0000    0.0000 H       1  UNL1        0.0278
     93 H           7.8671    1.6900    0.0000 H       1  UNL1        0.0620
     94 H           7.6592    4.8100    0.0000 H       1  UNL1        0.0620
     95 H           6.7932    3.3100    0.0000 H       1  UNL1        0.0618
     96 H           8.7331    3.1900    0.0000 H       1  UNL1        0.0618
@<TRIPOS>BOND
     1     1     3    1
     2     1     7    1
     3     1    13    1
     4     1    14    1
     5     2     4    1
     6     2     8    1
     7     2    15    1
     8     2    16    1
     9     3     5    1
    10     3    41    1
    11     3    42    1
    12     4     6    1
    13     4    43    1
    14     4    44    1
    15     5     9    1
    16     5    45    1
    17     5    46    1
    18     6    10    1
    19     6    47    1
    20     6    48    1
    21     7    11    2
    22     7    17    1
    23     8    12    2
    24     8    18    1
    25     9    11    1
    26     9    49    1
    27     9    50    1
    28    10    12    1
    29    10    51    1
    30    10    52    1
    31    11    19    1
    32    12    20    1
    33    13    53    1
    34    13    54    1
    35    13    55    1
    36    14    56    1
    37    14    57    1
    38    14    58    1
    39    15    59    1
    40    15    60    1
    41    15    61    1
    42    16    62    1
    43    16    63    1
    44    16    64    1
    45    17    21    2
    46    17    65    1
    47    18    22    2
    48    18    66    1
    49    19    67    1
    50    19    68    1
    51    19    69    1
    52    20    70    1
    53    20    71    1
    54    20    72    1
    55    21    23    1
    56    21    73    1
    57    22    24    1
    58    22    74    1
    59    23    25    1
    60    23    27    2
    61    24    26    1
    62    24    28    2
    63    25    75    1
    64    25    76    1
    65    25    77    1
    66    26    78    1
    67    26    79    1
    68    26    80    1
    69    27    29    1
    70    27    81    1
    71    28    30    1
    72    28    82    1
    73    29    31    2
    74    29    83    1
    75    30    32    2
    76    30    84    1
    77    31    33    1
    78    31    85    1
    79    32    34    1
    80    32    86    1
    81    33    35    1
    82    33    37    2
    83    34    36    1
    84    34    38    2
    85    35    87    1
    86    35    88    1
    87    35    89    1
    88    36    90    1
    89    36    91    1
    90    36    92    1
    91    37    39    1
    92    37    93    1
    93    38    40    1
    94    38    94    1
    95    39    40    2
    96    39    95    1
    97    40    96    1
