@<TRIPOS>MOLECULE
IMPHY011761
 39 39 0 0 0
SMALL
GASTEIGER

@<TRIPOS>ATOM
      1 C           5.1980    0.4369    0.0000 C.3     1  UNL1       -0.0135
      2 C           4.5981    1.3297    0.0000 C.3     1  UNL1       -0.0259
      3 C           4.6980   -0.4291    0.0000 C.2     1  UNL1       -0.0817
      4 C           5.9055    1.1436    0.0000 C.3     1  UNL1       -0.0561
      5 C           6.1503    0.1319    0.0000 C.3     1  UNL1       -0.0561
      6 C           3.7320    0.8297    0.0000 C.2     1  UNL1       -0.0842
      7 C           2.8660    1.3297    0.0000 C.2     1  UNL1       -0.0762
      8 C           2.0000    0.8297    0.0000 C.3     1  UNL1       -0.0286
      9 C           5.1980   -1.2952    0.0000 C.2     1  UNL1       -0.0834
     10 C           2.0000   -0.1703    0.0000 C.3     1  UNL1       -0.0308
     11 C           4.3320   -1.7952    0.0000 C.3     1  UNL1       -0.0138
     12 C           3.3660   -1.5363    0.0000 C.2     1  UNL1       -0.0728
     13 C           2.8660   -0.6703    0.0000 C.2     1  UNL1       -0.0844
     14 C           2.8660    2.3297    0.0000 C.3     1  UNL1       -0.0438
     15 C           2.7573   -2.3297    0.0000 C.3     1  UNL1       -0.0435
     16 H           5.1204    1.6637    0.0000 H       1  UNL1        0.0316
     17 H           4.2760    1.8595    0.0000 H       1  UNL1        0.0316
     18 H           4.0780   -0.4291    0.0000 H       1  UNL1        0.0575
     19 H           6.3436    0.7050    0.0000 H       1  UNL1        0.0238
     20 H           6.3441    1.5818    0.0000 H       1  UNL1        0.0238
     21 H           5.4673    1.5823    0.0000 H       1  UNL1        0.0238
     22 H           5.9612   -0.4586    0.0000 H       1  UNL1        0.0238
     23 H           6.7408   -0.0572    0.0000 H       1  UNL1        0.0238
     24 H           6.3394    0.7224    0.0000 H       1  UNL1        0.0238
     25 H           3.7320    0.2097    0.0000 H       1  UNL1        0.0572
     26 H           1.7880    1.4123    0.0000 H       1  UNL1        0.0313
     27 H           1.3894    0.7220    0.0000 H       1  UNL1        0.0313
     28 H           5.7968   -1.4556    0.0000 H       1  UNL1        0.0572
     29 H           1.3894   -0.0626    0.0000 H       1  UNL1        0.0310
     30 H           1.7880   -0.7529    0.0000 H       1  UNL1        0.0310
     31 H           4.0220   -2.3321    0.0000 H       1  UNL1        0.0352
     32 H           4.7704   -2.2336    0.0000 H       1  UNL1        0.0352
     33 H           3.3044   -0.2319    0.0000 H       1  UNL1        0.0572
     34 H           3.4860    2.3297    0.0000 H       1  UNL1        0.0274
     35 H           2.8660    2.9497    0.0000 H       1  UNL1        0.0274
     36 H           2.2460    2.3297    0.0000 H       1  UNL1        0.0274
     37 H           2.2654   -1.9523    0.0000 H       1  UNL1        0.0274
     38 H           2.3798   -2.8216    0.0000 H       1  UNL1        0.0274
     39 H           3.2491   -2.7071    0.0000 H       1  UNL1        0.0274
@<TRIPOS>BOND
     1     1     2    1
     2     1     3    1
     3     1     4    1
     4     1     5    1
     5     2     6    1
     6     2    16    1
     7     2    17    1
     8     3     9    2
     9     3    18    1
    10     4    19    1
    11     4    20    1
    12     4    21    1
    13     5    22    1
    14     5    23    1
    15     5    24    1
    16     6     7    2
    17     6    25    1
    18     7     8    1
    19     7    14    1
    20     8    10    1
    21     8    26    1
    22     8    27    1
    23     9    11    1
    24     9    28    1
    25    10    13    1
    26    10    29    1
    27    10    30    1
    28    11    12    1
    29    11    31    1
    30    11    32    1
    31    12    13    2
    32    12    15    1
    33    13    33    1
    34    14    34    1
    35    14    35    1
    36    14    36    1
    37    15    37    1
    38    15    38    1
    39    15    39    1
