@<TRIPOS>MOLECULE
IMPHY012680
 150 154 0 0 0
SMALL
GASTEIGER

@<TRIPOS>ATOM
      1 O           7.1962   -1.8664    0.0000 O.3     1  UNL1       -0.3381
      2 O           8.0622    1.0336    0.0000 O.3     1  UNL1       -0.3430
      3 O           5.4641   -1.8664    0.0000 O.3     1  UNL1       -0.3421
      4 O           8.0622    2.0336    0.0000 O.3     1  UNL1       -0.3402
      5 O           3.7320   -3.8664    0.0000 O.3     1  UNL1       -0.3402
      6 O           6.3301   -0.9664    0.0000 O.3     1  UNL1       -0.4558
      7 O           7.8727    4.6726    0.0000 O.3     1  UNL1       -0.3431
      8 O           7.1962   -3.8664    0.0000 O.3     1  UNL1       -0.4533
      9 O           5.4641    1.5336    0.0000 O.3     1  UNL1       -0.3830
     10 O           4.5981   -5.3664    0.0000 O.3     1  UNL1       -0.3420
     11 O           5.4641   -4.8664    0.0000 O.3     1  UNL1       -0.3853
     12 O           9.0974    5.8974    0.0000 O.3     1  UNL1       -0.3454
     13 O          10.1123    2.6759    0.0000 O.3     1  UNL1       -0.3864
     14 O          10.5525    4.1418    0.0000 O.3     1  UNL1       -0.3841
     15 O           2.0000   -4.8664    0.0000 O.3     1  UNL1       -0.3841
     16 O           3.7320   -7.8664    0.0000 O.3     1  UNL1       -0.4558
     17 O           2.0000   -6.8664    0.0000 O.3     1  UNL1       -0.3853
     18 O           7.4798   -2.4022    0.0000 O.2     1  UNL1       -0.2508
     19 O           7.1962   -5.5984    0.0000 O.2     1  UNL1       -0.2505
     20 O           5.4641   -7.8664    0.0000 O.2     1  UNL1       -0.2505
     21 C           7.1962   -0.4664    0.0000 C.3     1  UNL1        0.1270
     22 C           6.3301    0.0336    0.0000 C.3     1  UNL1        0.1619
     23 C           6.3301    1.0336    0.0000 C.3     1  UNL1        0.1451
     24 C           4.5981   -3.3664    0.0000 C.3     1  UNL1        0.1170
     25 C           8.0622    0.0336    0.0000 C.3     1  UNL1        0.0887
     26 C           6.3301   -2.3664    0.0000 C.3     1  UNL1        0.1996
     27 C           6.3301   -3.3664    0.0000 C.3     1  UNL1        0.1816
     28 C           5.4641   -3.8664    0.0000 C.3     1  UNL1        0.1254
     29 C           7.1962    1.5336    0.0000 C.3     1  UNL1        0.1894
     30 C           4.5981   -2.3664    0.0000 C.3     1  UNL1        0.0877
     31 C           8.3210    2.9996    0.0000 C.3     1  UNL1        0.1160
     32 C           9.2954    3.2526    0.0000 C.3     1  UNL1        0.1143
     33 C           7.6139    3.7067    0.0000 C.3     1  UNL1        0.0877
     34 C           9.5560    4.2251    0.0000 C.3     1  UNL1        0.1341
     35 C           3.7320   -4.8664    0.0000 C.3     1  UNL1        0.1884
     36 C           8.8386    4.9314    0.0000 C.3     1  UNL1        0.1881
     37 C           2.8660   -5.3664    0.0000 C.3     1  UNL1        0.1352
     38 C           8.9282   -0.4664    0.0000 C.3     1  UNL1       -0.0360
     39 C           2.8660   -6.3664    0.0000 C.3     1  UNL1        0.1250
     40 C           3.7320   -6.8664    0.0000 C.3     1  UNL1        0.1571
     41 C           3.7320   -1.8664    0.0000 C.3     1  UNL1       -0.0360
     42 C           4.5981   -6.3664    0.0000 C.3     1  UNL1        0.0984
     43 C           6.6480    3.4479    0.0000 C.3     1  UNL1       -0.0361
     44 C          10.0634    5.6385    0.0000 C.3     1  UNL1        0.0618
     45 C          10.5634    4.7725    0.0000 C.3     1  UNL1       -0.0265
     46 C           7.3348   -1.4128    0.0000 C.2     1  UNL1        0.3075
     47 C           5.4641   -6.8664    0.0000 C.3     1  UNL1       -0.0350
     48 C          10.6721    6.4319    0.0000 C.3     1  UNL1       -0.0265
     49 C           7.6962   -4.7323    0.0000 C.2     1  UNL1        0.3102
     50 C          10.0634    3.9065    0.0000 C.3     1  UNL1       -0.0507
     51 C           8.2009   -0.9128    0.0000 C.3     1  UNL1        0.0450
     52 C          10.2895    7.3558    0.0000 C.3     1  UNL1       -0.0507
     53 C           8.6962   -4.7324    0.0000 C.3     1  UNL1        0.0508
     54 C          10.5634    3.0405    0.0000 C.3     1  UNL1       -0.0530
     55 C           9.1668   -1.1716    0.0000 C.3     1  UNL1       -0.0430
     56 C          10.0634    2.1744    0.0000 C.3     1  UNL1       -0.0531
     57 C           9.8739   -0.4645    0.0000 C.3     1  UNL1       -0.0526
     58 C          10.3222    1.2085    0.0000 C.3     1  UNL1       -0.0531
     59 C           9.6151    0.5014    0.0000 C.3     1  UNL1       -0.0530
     60 C          10.8982    8.1491    0.0000 C.3     1  UNL1       -0.0532
     61 C           4.5981   -8.3664    0.0000 C.2     1  UNL1        0.3101
     62 C           9.1962   -5.5984    0.0000 C.3     1  UNL1       -0.0525
     63 C           9.1962   -3.8664    0.0000 C.3     1  UNL1       -0.0525
     64 C           4.5981   -9.3664    0.0000 C.3     1  UNL1        0.0508
     65 C          10.5155    9.0730    0.0000 C.3     1  UNL1       -0.0559
     66 C           5.4641   -9.8664    0.0000 C.3     1  UNL1       -0.0525
     67 C           3.7320   -9.8664    0.0000 C.3     1  UNL1       -0.0525
     68 C          11.1243    9.8664    0.0000 C.3     1  UNL1       -0.0653
     69 H           7.7331   -0.7764    0.0000 H       1  UNL1        0.0661
     70 H           5.7101    0.0336    0.0000 H       1  UNL1        0.0789
     71 H           6.3301    1.6536    0.0000 H       1  UNL1        0.0682
     72 H           4.5981   -3.9864    0.0000 H       1  UNL1        0.0650
     73 H           8.5991    0.3436    0.0000 H       1  UNL1        0.0621
     74 H           6.3301   -1.7464    0.0000 H       1  UNL1        0.0949
     75 H           6.3301   -3.9864    0.0000 H       1  UNL1        0.0813
     76 H           4.9272   -4.1764    0.0000 H       1  UNL1        0.0659
     77 H           6.8862    2.0706    0.0000 H       1  UNL1        0.0938
     78 H           4.5981   -1.7464    0.0000 H       1  UNL1        0.0621
     79 H           8.7577    2.5595    0.0000 H       1  UNL1        0.0650
     80 H           9.1842    2.6427    0.0000 H       1  UNL1        0.0648
     81 H           7.1755    4.1451    0.0000 H       1  UNL1        0.0621
     82 H           9.8147    4.7885    0.0000 H       1  UNL1        0.0671
     83 H           3.1951   -4.5564    0.0000 H       1  UNL1        0.0938
     84 H           9.4369    5.0942    0.0000 H       1  UNL1        0.0937
     85 H           3.4030   -5.6764    0.0000 H       1  UNL1        0.0671
     86 H           8.6182   -1.0033    0.0000 H       1  UNL1        0.0255
     87 H           9.4651   -0.7764    0.0000 H       1  UNL1        0.0255
     88 H           9.2382    0.0706    0.0000 H       1  UNL1        0.0255
     89 H           2.8660   -6.9864    0.0000 H       1  UNL1        0.0659
     90 H           4.2690   -7.1764    0.0000 H       1  UNL1        0.0787
     91 H           4.0420   -1.3294    0.0000 H       1  UNL1        0.0255
     92 H           3.1951   -1.5563    0.0000 H       1  UNL1        0.0255
     93 H           3.4220   -2.4033    0.0000 H       1  UNL1        0.0255
     94 H           5.1350   -6.0564    0.0000 H       1  UNL1        0.0632
     95 H           6.4875    4.0467    0.0000 H       1  UNL1        0.0255
     96 H           6.0491    3.2874    0.0000 H       1  UNL1        0.0255
     97 H           6.8084    2.8490    0.0000 H       1  UNL1        0.0255
     98 H           4.9272    1.2236    0.0000 H       1  UNL1        0.2102
     99 H           6.0010   -5.1764    0.0000 H       1  UNL1        0.2101
    100 H           9.8641    6.2256    0.0000 H       1  UNL1        0.0597
    101 H          10.6732    2.4117    0.0000 H       1  UNL1        0.2100
    102 H          11.0383    4.3740    0.0000 H       1  UNL1        0.0290
    103 H          11.0383    5.1710    0.0000 H       1  UNL1        0.0290
    104 H           5.1541   -7.4033    0.0000 H       1  UNL1        0.0256
    105 H           6.0010   -7.1764    0.0000 H       1  UNL1        0.0256
    106 H           5.7741   -6.3294    0.0000 H       1  UNL1        0.0256
    107 H          11.0910    5.9748    0.0000 H       1  UNL1        0.0290
    108 H          11.1950    6.7650    0.0000 H       1  UNL1        0.0290
    109 H          11.1134    4.4059    0.0000 H       1  UNL1        0.2101
    110 H           2.0000   -4.2463    0.0000 H       1  UNL1        0.2101
    111 H           9.5884    4.3050    0.0000 H       1  UNL1        0.0266
    112 H           9.5884    3.5080    0.0000 H       1  UNL1        0.0266
    113 H           8.5109   -0.3759    0.0000 H       1  UNL1        0.0377
    114 H           7.7625   -0.4744    0.0000 H       1  UNL1        0.0377
    115 H           2.0000   -7.4864    0.0000 H       1  UNL1        0.2101
    116 H           9.8706    7.8129    0.0000 H       1  UNL1        0.0266
    117 H           9.7666    7.0226    0.0000 H       1  UNL1        0.0266
    118 H           8.3861   -5.2693    0.0000 H       1  UNL1        0.0408
    119 H          11.0383    2.6419    0.0000 H       1  UNL1        0.0265
    120 H          11.0383    3.4390    0.0000 H       1  UNL1        0.0265
    121 H           8.9048   -1.7336    0.0000 H       1  UNL1        0.0270
    122 H           9.6747   -1.5272    0.0000 H       1  UNL1        0.0270
    123 H           9.6250    2.6128    0.0000 H       1  UNL1        0.0265
    124 H           9.5264    1.8644    0.0000 H       1  UNL1        0.0265
    125 H          10.2295   -0.9724    0.0000 H       1  UNL1        0.0265
    126 H          10.4358   -0.2025    0.0000 H       1  UNL1        0.0265
    127 H          10.6778    0.7006    0.0000 H       1  UNL1        0.0265
    128 H          10.8841    1.4705    0.0000 H       1  UNL1        0.0265
    129 H           9.2595    1.0093    0.0000 H       1  UNL1        0.0265
    130 H           9.0532    0.2394    0.0000 H       1  UNL1        0.0265
    131 H          11.3171    7.6920    0.0000 H       1  UNL1        0.0265
    132 H          11.4211    8.4822    0.0000 H       1  UNL1        0.0265
    133 H           8.6592   -5.9084    0.0000 H       1  UNL1        0.0237
    134 H           9.5062   -6.1353    0.0000 H       1  UNL1        0.0237
    135 H           9.7331   -5.2884    0.0000 H       1  UNL1        0.0237
    136 H           9.7331   -4.1764    0.0000 H       1  UNL1        0.0237
    137 H           9.5062   -3.3294    0.0000 H       1  UNL1        0.0237
    138 H           8.6592   -3.5564    0.0000 H       1  UNL1        0.0237
    139 H           4.5981   -9.9864    0.0000 H       1  UNL1        0.0408
    140 H          10.0967    9.5301    0.0000 H       1  UNL1        0.0263
    141 H           9.9926    8.7399    0.0000 H       1  UNL1        0.0263
    142 H           5.1541  -10.4033    0.0000 H       1  UNL1        0.0237
    143 H           6.0010  -10.1764    0.0000 H       1  UNL1        0.0237
    144 H           5.7741   -9.3294    0.0000 H       1  UNL1        0.0237
    145 H           3.4220   -9.3294    0.0000 H       1  UNL1        0.0237
    146 H           3.1951  -10.1764    0.0000 H       1  UNL1        0.0237
    147 H           4.0420  -10.4033    0.0000 H       1  UNL1        0.0237
    148 H          11.6162    9.4889    0.0000 H       1  UNL1        0.0230
    149 H          11.5017   10.3582    0.0000 H       1  UNL1        0.0230
    150 H          10.6324   10.2438    0.0000 H       1  UNL1        0.0230
@<TRIPOS>BOND
     1     1    21    1
     2     1    26    1
     3     2    25    1
     4     2    29    1
     5     3    26    1
     6     3    30    1
     7     4    29    1
     8     4    31    1
     9     5    24    1
    10     5    35    1
    11     6    22    1
    12     6    46    1
    13     7    33    1
    14     7    36    1
    15     8    27    1
    16     8    49    1
    17     9    23    1
    18     9    98    1
    19    10    35    1
    20    10    42    1
    21    11    28    1
    22    11    99    1
    23    12    36    1
    24    12    44    1
    25    13    32    1
    26    13   101    1
    27    14    34    1
    28    14   109    1
    29    15    37    1
    30    15   110    1
    31    16    40    1
    32    16    61    1
    33    17    39    1
    34    17   115    1
    35    18    46    2
    36    19    49    2
    37    20    61    2
    38    21    22    1
    39    21    25    1
    40    21    69    1
    41    22    23    1
    42    22    70    1
    43    23    29    1
    44    23    71    1
    45    24    28    1
    46    24    30    1
    47    24    72    1
    48    25    38    1
    49    25    73    1
    50    26    27    1
    51    26    74    1
    52    27    28    1
    53    27    75    1
    54    28    76    1
    55    29    77    1
    56    30    41    1
    57    30    78    1
    58    31    32    1
    59    31    33    1
    60    31    79    1
    61    32    34    1
    62    32    80    1
    63    33    43    1
    64    33    81    1
    65    34    36    1
    66    34    82    1
    67    35    37    1
    68    35    83    1
    69    36    84    1
    70    37    39    1
    71    37    85    1
    72    38    86    1
    73    38    87    1
    74    38    88    1
    75    39    40    1
    76    39    89    1
    77    40    42    1
    78    40    90    1
    79    41    91    1
    80    41    92    1
    81    41    93    1
    82    42    47    1
    83    42    94    1
    84    43    95    1
    85    43    96    1
    86    43    97    1
    87    44    45    1
    88    44    48    1
    89    44   100    1
    90    45    50    1
    91    45   102    1
    92    45   103    1
    93    46    51    1
    94    47   104    1
    95    47   105    1
    96    47   106    1
    97    48    52    1
    98    48   107    1
    99    48   108    1
   100    49    53    1
   101    50    54    1
   102    50   111    1
   103    50   112    1
   104    51    55    1
   105    51   113    1
   106    51   114    1
   107    52    60    1
   108    52   116    1
   109    52   117    1
   110    53    62    1
   111    53    63    1
   112    53   118    1
   113    54    56    1
   114    54   119    1
   115    54   120    1
   116    55    57    1
   117    55   121    1
   118    55   122    1
   119    56    58    1
   120    56   123    1
   121    56   124    1
   122    57    59    1
   123    57   125    1
   124    57   126    1
   125    58    59    1
   126    58   127    1
   127    58   128    1
   128    59   129    1
   129    59   130    1
   130    60    65    1
   131    60   131    1
   132    60   132    1
   133    61    64    1
   134    62   133    1
   135    62   134    1
   136    62   135    1
   137    63   136    1
   138    63   137    1
   139    63   138    1
   140    64    66    1
   141    64    67    1
   142    64   139    1
   143    65    68    1
   144    65   140    1
   145    65   141    1
   146    66   142    1
   147    66   143    1
   148    66   144    1
   149    67   145    1
   150    67   146    1
   151    67   147    1
   152    68   148    1
   153    68   149    1
   154    68   150    1
