@<TRIPOS>MOLECULE
IMPHY013245
 80 86 0 0 0
SMALL
GASTEIGER

@<TRIPOS>ATOM
      1 O           8.5991    1.9388    0.0000 O.3     1  UNL1       -0.3385
      2 O           6.8671   -0.0612    0.0000 O.3     1  UNL1       -0.4524
      3 O           8.5991   -1.0612    0.0000 O.3     1  UNL1       -0.3853
      4 O          10.3312   -0.0612    0.0000 O.3     1  UNL1       -0.3841
      5 O          10.3312    1.9388    0.0000 O.3     1  UNL1       -0.3649
      6 O           6.8671    2.9388    0.0000 O.3     1  UNL1       -0.4584
      7 O           4.0980   -3.8606    0.0000 O.2     1  UNL1       -0.4178
      8 O           7.7641   -4.1365    0.0000 O.2     1  UNL1       -0.4178
      9 O           6.0010    1.4388    0.0000 O.2     1  UNL1       -0.2449
     10 O           7.0838   -0.7052    0.0000 O.3     1  UNL1       -0.5028
     11 O           8.3850   -2.1991    0.0000 O.3     1  UNL1       -0.5009
     12 O           4.0954   -2.5460    0.0000 O.3     1  UNL1       -0.5028
     13 O           5.1350    2.9388    0.0000 O.2     1  UNL1       -0.2450
     14 O           3.8098   -2.1527    0.0000 O.2     1  UNL1       -0.2445
     15 O           2.5369    0.4388    0.0000 O.3     1  UNL1       -0.5032
     16 O           2.5369   -1.5612    0.0000 O.3     1  UNL1       -0.5009
     17 O           3.4006   -5.7193    0.0000 O.3     1  UNL1       -0.5009
     18 O           8.0348   -5.8858    0.0000 O.2     1  UNL1       -0.2445
     19 O           4.6418   -7.2632    0.0000 O.3     1  UNL1       -0.5032
     20 O           4.2690    6.4388    0.0000 O.3     1  UNL1       -0.5032
     21 O           7.7331    6.4388    0.0000 O.3     1  UNL1       -0.5032
     22 O           6.0010    7.4388    0.0000 O.3     1  UNL1       -0.5009
     23 C           7.7331    0.4388    0.0000 C.3     1  UNL1        0.1609
     24 C           8.5991   -0.0612    0.0000 C.3     1  UNL1        0.1251
     25 C           7.7331    1.4388    0.0000 C.3     1  UNL1        0.1350
     26 C           9.4651    0.4388    0.0000 C.3     1  UNL1        0.1350
     27 C           9.4651    1.4388    0.0000 C.3     1  UNL1        0.1855
     28 C           6.8671    1.9388    0.0000 C.3     1  UNL1        0.1225
     29 C           6.0010    0.4388    0.0000 C.2     1  UNL1        0.3404
     30 C           5.1350   -0.0612    0.0000 C.ar    1  UNL1        0.0740
     31 C           5.1350   -1.0612    0.0000 C.ar    1  UNL1        0.0458
     32 C           5.7778   -1.8273    0.0000 C.ar    1  UNL1        0.0464
     33 C           6.0700   -3.5278    0.0000 C.ar    1  UNL1        0.0474
     34 C           5.4329   -2.7571    0.0000 C.ar    1  UNL1        0.0823
     35 C           5.7210   -4.4650    0.0000 C.ar    1  UNL1        0.0468
     36 C           7.0943   -3.3387    0.0000 C.ar    1  UNL1        0.1854
     37 C           6.7534   -1.6491    0.0000 C.ar    1  UNL1        0.1708
     38 C           6.3722   -5.2780    0.0000 C.ar    1  UNL1        0.0744
     39 C           4.7350   -4.6313    0.0000 C.ar    1  UNL1        0.1854
     40 C           4.2690    0.4388    0.0000 C.ar    1  UNL1       -0.0017
     41 C           4.2690   -1.5612    0.0000 C.ar    1  UNL1        0.1708
     42 C           7.4047   -2.3969    0.0000 C.ar    1  UNL1        0.2028
     43 C           6.0010    3.4388    0.0000 C.2     1  UNL1        0.3395
     44 C           4.4469   -2.9234    0.0000 C.ar    1  UNL1        0.3460
     45 C           3.4030   -0.0612    0.0000 C.ar    1  UNL1        0.1628
     46 C           3.4030   -1.0612    0.0000 C.ar    1  UNL1        0.2012
     47 C           7.4006   -5.1126    0.0000 C.ar    1  UNL1        0.3454
     48 C           4.3877   -5.5603    0.0000 C.ar    1  UNL1        0.2022
     49 C           5.9910   -6.1935    0.0000 C.ar    1  UNL1       -0.0017
     50 C           5.0091   -6.3331    0.0000 C.ar    1  UNL1        0.1628
     51 C           6.0010    4.4388    0.0000 C.ar    1  UNL1        0.0661
     52 C           6.8671    4.9388    0.0000 C.ar    1  UNL1       -0.0023
     53 C           5.1350    4.9388    0.0000 C.ar    1  UNL1       -0.0023
     54 C           5.1350    5.9388    0.0000 C.ar    1  UNL1        0.1628
     55 C           6.8671    5.9388    0.0000 C.ar    1  UNL1        0.1628
     56 C           6.0010    6.4388    0.0000 C.ar    1  UNL1        0.2006
     57 H           7.7331   -0.1812    0.0000 H       1  UNL1        0.0789
     58 H           9.1360   -0.3712    0.0000 H       1  UNL1        0.0659
     59 H           7.7331    2.0588    0.0000 H       1  UNL1        0.0669
     60 H           9.4651   -0.1812    0.0000 H       1  UNL1        0.0671
     61 H          10.0021    1.1288    0.0000 H       1  UNL1        0.0935
     62 H           6.2565    2.0464    0.0000 H       1  UNL1        0.0725
     63 H           6.6550    1.3562    0.0000 H       1  UNL1        0.0725
     64 H           8.0622   -1.3712    0.0000 H       1  UNL1        0.2101
     65 H          10.8681    0.2488    0.0000 H       1  UNL1        0.2101
     66 H          10.3312    2.5588    0.0000 H       1  UNL1        0.2126
     67 H           4.2690    1.0588    0.0000 H       1  UNL1        0.0664
     68 H           6.3705   -6.6837    0.0000 H       1  UNL1        0.0664
     69 H           7.6930   -0.5901    0.0000 H       1  UNL1        0.2923
     70 H           8.7950   -2.6641    0.0000 H       1  UNL1        0.2924
     71 H           3.5128   -2.7581    0.0000 H       1  UNL1        0.2923
     72 H           7.4040    4.6288    0.0000 H       1  UNL1        0.0663
     73 H           4.5981    4.6288    0.0000 H       1  UNL1        0.0663
     74 H           2.5369    1.0588    0.0000 H       1  UNL1        0.2923
     75 H           2.0000   -1.2512    0.0000 H       1  UNL1        0.2924
     76 H           3.1799   -6.2988    0.0000 H       1  UNL1        0.2924
     77 H           5.0273   -7.7488    0.0000 H       1  UNL1        0.2923
     78 H           3.7320    6.1288    0.0000 H       1  UNL1        0.2923
     79 H           7.7331    7.0588    0.0000 H       1  UNL1        0.2923
     80 H           5.4641    7.7488    0.0000 H       1  UNL1        0.2924
@<TRIPOS>BOND
     1     1    25    1
     2     1    27    1
     3     2    23    1
     4     2    29    1
     5     3    24    1
     6     3    64    1
     7     4    26    1
     8     4    65    1
     9     5    27    1
    10     5    66    1
    11     6    28    1
    12     6    43    1
    13     7    39   ar
    14     7    44   ar
    15     8    36   ar
    16     8    47   ar
    17     9    29    2
    18    10    37    1
    19    10    69    1
    20    11    42    1
    21    11    70    1
    22    12    41    1
    23    12    71    1
    24    13    43    2
    25    14    44    2
    26    15    45    1
    27    15    74    1
    28    16    46    1
    29    16    75    1
    30    17    48    1
    31    17    76    1
    32    18    47    2
    33    19    50    1
    34    19    77    1
    35    20    54    1
    36    20    78    1
    37    21    55    1
    38    21    79    1
    39    22    56    1
    40    22    80    1
    41    23    24    1
    42    23    25    1
    43    23    57    1
    44    24    26    1
    45    24    58    1
    46    25    28    1
    47    25    59    1
    48    26    27    1
    49    26    60    1
    50    27    61    1
    51    28    62    1
    52    28    63    1
    53    29    30    1
    54    30    31   ar
    55    30    40   ar
    56    31    32    1
    57    31    41   ar
    58    32    34   ar
    59    32    37   ar
    60    33    34   ar
    61    33    35   ar
    62    33    36   ar
    63    34    44   ar
    64    35    38   ar
    65    35    39   ar
    66    36    42   ar
    67    37    42   ar
    68    38    47   ar
    69    38    49   ar
    70    39    48   ar
    71    40    45   ar
    72    40    67    1
    73    41    46   ar
    74    43    51    1
    75    45    46   ar
    76    48    50   ar
    77    49    50   ar
    78    49    68    1
    79    51    52   ar
    80    51    53   ar
    81    52    55   ar
    82    52    72    1
    83    53    54   ar
    84    53    73    1
    85    54    56   ar
    86    55    56   ar
