@<TRIPOS>MOLECULE
IMPHY012761
 60 59 0 0 0
SMALL
GASTEIGER

@<TRIPOS>ATOM
      1 O           2.5369   -3.0000    0.0000 O.3     1  UNL1       -0.4806
      2 O           3.4030   -4.5000    0.0000 O.2     1  UNL1       -0.2510
      3 C          12.9292    1.0000    0.0000 C.3     1  UNL1       -0.0531
      4 C          12.9292   -0.0000    0.0000 C.3     1  UNL1       -0.0530
      5 C          13.7953    1.5000    0.0000 C.3     1  UNL1       -0.0531
      6 C          12.0632   -0.5000    0.0000 C.3     1  UNL1       -0.0528
      7 C          13.7953    2.5000    0.0000 C.3     1  UNL1       -0.0531
      8 C          12.0632   -1.5000    0.0000 C.3     1  UNL1       -0.0496
      9 C          14.6613    3.0000    0.0000 C.3     1  UNL1       -0.0533
     10 C           7.7331   -3.0000    0.0000 C.3     1  UNL1       -0.0528
     11 C           6.8671   -3.5000    0.0000 C.3     1  UNL1       -0.0530
     12 C           8.5991   -3.5000    0.0000 C.3     1  UNL1       -0.0496
     13 C          11.1972   -2.0000    0.0000 C.3     1  UNL1       -0.0348
     14 C           6.0010   -3.0000    0.0000 C.3     1  UNL1       -0.0526
     15 C           9.4651   -3.0000    0.0000 C.3     1  UNL1       -0.0348
     16 C          14.6613    4.0000    0.0000 C.3     1  UNL1       -0.0559
     17 C           5.1350   -3.5000    0.0000 C.3     1  UNL1       -0.0430
     18 C          11.1972   -3.0000    0.0000 C.2     1  UNL1       -0.0879
     19 C          10.3312   -3.5000    0.0000 C.2     1  UNL1       -0.0879
     20 C           4.2690   -3.0000    0.0000 C.3     1  UNL1        0.0448
     21 C          15.5273    4.5000    0.0000 C.3     1  UNL1       -0.0653
     22 C           3.4030   -3.5000    0.0000 C.2     1  UNL1        0.3047
     23 H          12.7172    1.5826    0.0000 H       1  UNL1        0.0265
     24 H          12.3187    0.8923    0.0000 H       1  UNL1        0.0265
     25 H          13.1413   -0.5826    0.0000 H       1  UNL1        0.0265
     26 H          13.5398    0.1077    0.0000 H       1  UNL1        0.0265
     27 H          14.0073    0.9174    0.0000 H       1  UNL1        0.0265
     28 H          14.4058    1.6077    0.0000 H       1  UNL1        0.0265
     29 H          11.8512    0.0826    0.0000 H       1  UNL1        0.0265
     30 H          11.4526   -0.6077    0.0000 H       1  UNL1        0.0265
     31 H          13.5832    3.0826    0.0000 H       1  UNL1        0.0265
     32 H          13.1847    2.3923    0.0000 H       1  UNL1        0.0265
     33 H          12.2753   -2.0826    0.0000 H       1  UNL1        0.0268
     34 H          12.6738   -1.3923    0.0000 H       1  UNL1        0.0268
     35 H          14.8733    2.4174    0.0000 H       1  UNL1        0.0265
     36 H          15.2719    3.1077    0.0000 H       1  UNL1        0.0265
     37 H           8.1316   -2.5250    0.0000 H       1  UNL1        0.0265
     38 H           7.3346   -2.5250    0.0000 H       1  UNL1        0.0265
     39 H           6.4685   -3.9750    0.0000 H       1  UNL1        0.0265
     40 H           7.2656   -3.9750    0.0000 H       1  UNL1        0.0265
     41 H           8.2006   -3.9750    0.0000 H       1  UNL1        0.0268
     42 H           8.9976   -3.9750    0.0000 H       1  UNL1        0.0268
     43 H          10.9851   -1.4174    0.0000 H       1  UNL1        0.0307
     44 H          10.5866   -2.1077    0.0000 H       1  UNL1        0.0307
     45 H           6.3996   -2.5250    0.0000 H       1  UNL1        0.0265
     46 H           5.6025   -2.5250    0.0000 H       1  UNL1        0.0265
     47 H           9.8637   -2.5250    0.0000 H       1  UNL1        0.0307
     48 H           9.0666   -2.5250    0.0000 H       1  UNL1        0.0307
     49 H          14.4492    4.5826    0.0000 H       1  UNL1        0.0263
     50 H          14.0507    3.8923    0.0000 H       1  UNL1        0.0263
     51 H           4.7365   -3.9750    0.0000 H       1  UNL1        0.0270
     52 H           5.5335   -3.9750    0.0000 H       1  UNL1        0.0270
     53 H          11.7341   -3.3100    0.0000 H       1  UNL1        0.0569
     54 H          10.3312   -4.1200    0.0000 H       1  UNL1        0.0569
     55 H           4.6675   -2.5250    0.0000 H       1  UNL1        0.0377
     56 H           3.8705   -2.5250    0.0000 H       1  UNL1        0.0377
     57 H          15.8373    3.9631    0.0000 H       1  UNL1        0.0230
     58 H          16.0643    4.8100    0.0000 H       1  UNL1        0.0230
     59 H          15.2173    5.0369    0.0000 H       1  UNL1        0.0230
     60 H           2.0000   -3.3100    0.0000 H       1  UNL1        0.2951
@<TRIPOS>BOND
     1     1    22    1
     2     1    60    1
     3     2    22    2
     4     3     4    1
     5     3     5    1
     6     3    23    1
     7     3    24    1
     8     4     6    1
     9     4    25    1
    10     4    26    1
    11     5     7    1
    12     5    27    1
    13     5    28    1
    14     6     8    1
    15     6    29    1
    16     6    30    1
    17     7     9    1
    18     7    31    1
    19     7    32    1
    20     8    13    1
    21     8    33    1
    22     8    34    1
    23     9    16    1
    24     9    35    1
    25     9    36    1
    26    10    11    1
    27    10    12    1
    28    10    37    1
    29    10    38    1
    30    11    14    1
    31    11    39    1
    32    11    40    1
    33    12    15    1
    34    12    41    1
    35    12    42    1
    36    13    18    1
    37    13    43    1
    38    13    44    1
    39    14    17    1
    40    14    45    1
    41    14    46    1
    42    15    19    1
    43    15    47    1
    44    15    48    1
    45    16    21    1
    46    16    49    1
    47    16    50    1
    48    17    20    1
    49    17    51    1
    50    17    52    1
    51    18    19    2
    52    18    53    1
    53    19    54    1
    54    20    22    1
    55    20    55    1
    56    20    56    1
    57    21    57    1
    58    21    58    1
    59    21    59    1
