@<TRIPOS>MOLECULE
IMPHY008604
 37 38 0 0 0
SMALL
GASTEIGER

@<TRIPOS>ATOM
      1 O           6.3580   -0.7847    0.0000 O.3     1  UNL1       -0.4778
      2 O           4.5981   -1.7500    0.0000 O.3     1  UNL1       -0.4885
      3 O           2.8660   -0.7500    0.0000 O.3     1  UNL1       -0.4906
      4 O           2.0000    0.7500    0.0000 O.2     1  UNL1       -0.2922
      5 C           7.2641   -0.2708    0.0000 C.3     1  UNL1        0.1237
      6 C           5.4641   -0.2500    0.0000 C.ar    1  UNL1        0.1739
      7 C           5.4641    0.7500    0.0000 C.ar    1  UNL1        0.0211
      8 C           7.2641    0.7708    0.0000 C.2     1  UNL1       -0.0409
      9 C           8.2641   -0.2747    0.0000 C.3     1  UNL1       -0.0215
     10 C           7.7608   -1.1388    0.0000 C.3     1  UNL1       -0.0215
     11 C           6.3580    1.2847    0.0000 C.2     1  UNL1       -0.0512
     12 C           4.5981   -0.7500    0.0000 C.ar    1  UNL1        0.2049
     13 C           4.5981    1.2500    0.0000 C.ar    1  UNL1       -0.0369
     14 C           3.7320    0.7500    0.0000 C.ar    1  UNL1        0.0631
     15 C           3.7320   -0.2500    0.0000 C.ar    1  UNL1        0.1757
     16 C           2.8660    1.2500    0.0000 C.2     1  UNL1        0.1638
     17 C           2.8660    2.2500    0.0000 C.3     1  UNL1       -0.0013
     18 C           3.7320   -2.2500    0.0000 C.3     1  UNL1        0.0791
     19 C           2.0000   -0.2500    0.0000 C.3     1  UNL1        0.0790
     20 H           7.7998    1.0829    0.0000 H       1  UNL1        0.0611
     21 H           8.2617   -0.8947    0.0000 H       1  UNL1        0.0271
     22 H           8.8841   -0.2771    0.0000 H       1  UNL1        0.0271
     23 H           8.2665    0.3453    0.0000 H       1  UNL1        0.0271
     24 H           7.2226   -1.4467    0.0000 H       1  UNL1        0.0271
     25 H           8.0687   -1.6769    0.0000 H       1  UNL1        0.0271
     26 H           8.2989   -0.8308    0.0000 H       1  UNL1        0.0271
     27 H           6.3509    1.9046    0.0000 H       1  UNL1        0.0623
     28 H           4.5981    1.8700    0.0000 H       1  UNL1        0.0633
     29 H           3.4860    2.2500    0.0000 H       1  UNL1        0.0309
     30 H           2.8660    2.8700    0.0000 H       1  UNL1        0.0309
     31 H           2.2460    2.2500    0.0000 H       1  UNL1        0.0309
     32 H           3.4220   -1.7131    0.0000 H       1  UNL1        0.0660
     33 H           3.1951   -2.5600    0.0000 H       1  UNL1        0.0660
     34 H           4.0420   -2.7869    0.0000 H       1  UNL1        0.0660
     35 H           2.3100    0.2869    0.0000 H       1  UNL1        0.0660
     36 H           1.4631    0.0600    0.0000 H       1  UNL1        0.0660
     37 H           1.6900   -0.7869    0.0000 H       1  UNL1        0.0660
@<TRIPOS>BOND
     1     1     5    1
     2     1     6    1
     3     2    12    1
     4     2    18    1
     5     3    15    1
     6     3    19    1
     7     4    16    2
     8     5     8    1
     9     5     9    1
    10     5    10    1
    11     6     7   ar
    12     6    12   ar
    13     7    11    1
    14     7    13   ar
    15     8    11    2
    16     8    20    1
    17     9    21    1
    18     9    22    1
    19     9    23    1
    20    10    24    1
    21    10    25    1
    22    10    26    1
    23    11    27    1
    24    12    15   ar
    25    13    14   ar
    26    13    28    1
    27    14    15   ar
    28    14    16    1
    29    16    17    1
    30    17    29    1
    31    17    30    1
    32    17    31    1
    33    18    32    1
    34    18    33    1
    35    18    34    1
    36    19    35    1
    37    19    36    1
    38    19    37    1
