@<TRIPOS>MOLECULE
IMPHY005805
 88 94 0 0 0
SMALL
GASTEIGER

@<TRIPOS>ATOM
      1 O           4.0543    3.2830    0.0000 O.3     1  UNL1       -0.4911
      2 O           2.6720    4.7946    0.0000 O.3     1  UNL1       -0.4914
      3 O           7.9087    1.8820    0.0000 O.3     1  UNL1       -0.4525
      4 O           6.1767    0.8820    0.0000 O.2     1  UNL1       -0.2840
      5 O           7.0237   -5.6394    0.0000 O.3     1  UNL1       -0.4914
      6 O           8.7441   -6.6594    0.0000 O.3     1  UNL1       -0.4914
      7 N           7.0573    6.3538    0.0000 N.3     1  UNL1       -0.2981
      8 N           9.6788   -2.1006    0.0000 N.3     1  UNL1       -0.2978
      9 C           6.6767    5.4209    0.0000 C.3     1  UNL1        0.0374
     10 C           6.1767    3.8820    0.0000 C.3     1  UNL1        0.0416
     11 C           6.9857    4.4698    0.0000 C.3     1  UNL1       -0.0163
     12 C           5.6767    5.4209    0.0000 C.ar    1  UNL1       -0.0190
     13 C           5.3677    4.4698    0.0000 C.ar    1  UNL1        0.0167
     14 C           4.9917    6.2056    0.0000 C.ar    1  UNL1       -0.0375
     15 C           6.4658    7.1694    0.0000 C.3     1  UNL1        0.0032
     16 C           5.4608    7.0973    0.0000 C.3     1  UNL1       -0.0144
     17 C           7.0427    3.3820    0.0000 C.2     1  UNL1       -0.0234
     18 C           5.3107    3.3820    0.0000 C.2     1  UNL1       -0.0658
     19 C           4.3523    4.2376    0.0000 C.ar    1  UNL1        0.1661
     20 C           3.9712    5.9969    0.0000 C.ar    1  UNL1       -0.0128
     21 C           8.0502    6.4735    0.0000 C.3     1  UNL1       -0.0122
     22 C           3.6493    5.0062    0.0000 C.ar    1  UNL1        0.1621
     23 C           7.0427    2.3820    0.0000 C.2     1  UNL1        0.1721
     24 C           5.3107    2.3820    0.0000 C.2     1  UNL1       -0.0140
     25 C           6.1767    1.8820    0.0000 C.2     1  UNL1        0.2203
     26 C           3.0786    3.0638    0.0000 C.3     1  UNL1        0.0790
     27 C           8.7748   -2.6180    0.0000 C.3     1  UNL1        0.0397
     28 C           7.9087    0.8820    0.0000 C.ar    1  UNL1        0.1286
     29 C           8.7788   -3.6596    0.0000 C.ar    1  UNL1       -0.0231
     30 C           7.9087   -2.1180    0.0000 C.3     1  UNL1       -0.0079
     31 C           2.0000    5.5351    0.0000 C.3     1  UNL1        0.0790
     32 C          10.5748   -2.6318    0.0000 C.3     1  UNL1        0.0032
     33 C          10.5548   -3.6733    0.0000 C.3     1  UNL1       -0.0144
     34 C           9.6390   -4.1696    0.0000 C.ar    1  UNL1       -0.0378
     35 C           7.9087   -1.1180    0.0000 C.ar    1  UNL1       -0.0453
     36 C           7.0427    0.3820    0.0000 C.ar    1  UNL1       -0.0191
     37 C           8.7748    0.3820    0.0000 C.ar    1  UNL1       -0.0191
     38 C           9.6866   -1.1007    0.0000 C.3     1  UNL1       -0.0122
     39 C           7.9070   -4.1495    0.0000 C.ar    1  UNL1       -0.0114
     40 C           7.0427   -0.6180    0.0000 C.ar    1  UNL1       -0.0550
     41 C           8.7748   -0.6180    0.0000 C.ar    1  UNL1       -0.0550
     42 C           9.6274   -5.1695    0.0000 C.ar    1  UNL1       -0.0128
     43 C           7.8955   -5.1495    0.0000 C.ar    1  UNL1        0.1618
     44 C           8.7556   -5.6595    0.0000 C.ar    1  UNL1        0.1618
     45 C           7.0122   -6.6394    0.0000 C.3     1  UNL1        0.0790
     46 C           9.6043   -7.1694    0.0000 C.3     1  UNL1        0.0790
     47 H           7.2963    5.3982    0.0000 H       1  UNL1        0.0513
     48 H           7.2957    3.9329    0.0000 H       1  UNL1        0.0298
     49 H           7.5521    4.7220    0.0000 H       1  UNL1        0.0298
     50 H           7.0262    7.4347    0.0000 H       1  UNL1        0.0430
     51 H           6.3083    7.7690    0.0000 H       1  UNL1        0.0430
     52 H           5.5312    7.7133    0.0000 H       1  UNL1        0.0326
     53 H           4.8683    7.2799    0.0000 H       1  UNL1        0.0326
     54 H           7.5796    3.6920    0.0000 H       1  UNL1        0.0622
     55 H           4.7737    3.6920    0.0000 H       1  UNL1        0.0585
     56 H           3.5581    6.4592    0.0000 H       1  UNL1        0.0658
     57 H           8.1244    5.8580    0.0000 H       1  UNL1        0.0391
     58 H           8.6657    6.5477    0.0000 H       1  UNL1        0.0391
     59 H           7.9759    7.0890    0.0000 H       1  UNL1        0.0391
     60 H           4.7737    2.0720    0.0000 H       1  UNL1        0.0654
     61 H           2.9427    3.6687    0.0000 H       1  UNL1        0.0660
     62 H           2.4737    2.9279    0.0000 H       1  UNL1        0.0660
     63 H           3.2145    2.4589    0.0000 H       1  UNL1        0.0660
     64 H           8.7760   -1.9980    0.0000 H       1  UNL1        0.0515
     65 H           7.2982   -2.0103    0.0000 H       1  UNL1        0.0332
     66 H           7.6967   -2.7006    0.0000 H       1  UNL1        0.0332
     67 H           2.4592    5.9518    0.0000 H       1  UNL1        0.0660
     68 H           1.5834    5.9943    0.0000 H       1  UNL1        0.0660
     69 H           1.5408    5.1185    0.0000 H       1  UNL1        0.0660
     70 H          11.1835   -2.7497    0.0000 H       1  UNL1        0.0430
     71 H          10.7951   -2.0523    0.0000 H       1  UNL1        0.0430
     72 H          10.7525   -4.2609    0.0000 H       1  UNL1        0.0326
     73 H          11.1676   -3.5790    0.0000 H       1  UNL1        0.0326
     74 H           6.5058    0.6920    0.0000 H       1  UNL1        0.0654
     75 H           9.3117    0.6920    0.0000 H       1  UNL1        0.0654
     76 H          10.3065   -1.1054    0.0000 H       1  UNL1        0.0391
     77 H           9.6913   -0.4807    0.0000 H       1  UNL1        0.0391
     78 H           9.0666   -1.0959    0.0000 H       1  UNL1        0.0391
     79 H           7.3737   -3.8334    0.0000 H       1  UNL1        0.0659
     80 H           6.5058   -0.9280    0.0000 H       1  UNL1        0.0621
     81 H           9.3117   -0.9280    0.0000 H       1  UNL1        0.0621
     82 H          10.1607   -5.4857    0.0000 H       1  UNL1        0.0658
     83 H           6.3922   -6.6322    0.0000 H       1  UNL1        0.0660
     84 H           7.0050   -7.2593    0.0000 H       1  UNL1        0.0660
     85 H           7.6321   -6.6465    0.0000 H       1  UNL1        0.0660
     86 H           9.2881   -7.7027    0.0000 H       1  UNL1        0.0660
     87 H          10.1376   -7.4856    0.0000 H       1  UNL1        0.0660
     88 H           9.9205   -6.6361    0.0000 H       1  UNL1        0.0660
@<TRIPOS>BOND
     1     1    19    1
     2     1    26    1
     3     2    22    1
     4     2    31    1
     5     3    23    1
     6     3    28    1
     7     4    25    2
     8     5    43    1
     9     5    45    1
    10     6    44    1
    11     6    46    1
    12     7     9    1
    13     7    15    1
    14     7    21    1
    15     8    27    1
    16     8    32    1
    17     8    38    1
    18     9    11    1
    19     9    12    1
    20     9    47    1
    21    10    11    1
    22    10    13    1
    23    10    17    1
    24    10    18    1
    25    11    48    1
    26    11    49    1
    27    12    13   ar
    28    12    14   ar
    29    13    19   ar
    30    14    16    1
    31    14    20   ar
    32    15    16    1
    33    15    50    1
    34    15    51    1
    35    16    52    1
    36    16    53    1
    37    17    23    2
    38    17    54    1
    39    18    24    2
    40    18    55    1
    41    19    22   ar
    42    20    22   ar
    43    20    56    1
    44    21    57    1
    45    21    58    1
    46    21    59    1
    47    23    25    1
    48    24    25    1
    49    24    60    1
    50    26    61    1
    51    26    62    1
    52    26    63    1
    53    27    29    1
    54    27    30    1
    55    27    64    1
    56    28    36   ar
    57    28    37   ar
    58    29    34   ar
    59    29    39   ar
    60    30    35    1
    61    30    65    1
    62    30    66    1
    63    31    67    1
    64    31    68    1
    65    31    69    1
    66    32    33    1
    67    32    70    1
    68    32    71    1
    69    33    34    1
    70    33    72    1
    71    33    73    1
    72    34    42   ar
    73    35    40   ar
    74    35    41   ar
    75    36    40   ar
    76    36    74    1
    77    37    41   ar
    78    37    75    1
    79    38    76    1
    80    38    77    1
    81    38    78    1
    82    39    43   ar
    83    39    79    1
    84    40    80    1
    85    41    81    1
    86    42    44   ar
    87    42    82    1
    88    43    44   ar
    89    45    83    1
    90    45    84    1
    91    45    85    1
    92    46    86    1
    93    46    87    1
    94    46    88    1
