@<TRIPOS>MOLECULE
IMPHY006231
 95 101 0 0 0
SMALL
GASTEIGER

@<TRIPOS>ATOM
      1 O           7.8521   -1.4688    0.0000 O.3     1  UNL1       -0.3719
      2 O           8.1002    0.8096    0.0000 O.3     1  UNL1       -0.4548
      3 O           3.7319   -0.6873    0.0000 O.3     1  UNL1       -0.4608
      4 O           5.4900   -3.7597    0.0000 O.3     1  UNL1       -0.4608
      5 O           4.8598    2.4220    0.0000 O.3     1  UNL1       -0.3440
      6 O           3.3178    1.7641    0.0000 O.3     1  UNL1       -0.3669
      7 O           8.9662   -0.6904    0.0000 O.2     1  UNL1       -0.2456
      8 O           2.8486   -2.1772    0.0000 O.2     1  UNL1       -0.2512
      9 O           3.7580   -3.7664    0.0000 O.2     1  UNL1       -0.2512
     10 O           8.7811    5.2630    0.0000 O.2     1  UNL1       -0.4707
     11 C           5.5021   -0.6904    0.0000 C.3     1  UNL1        0.0149
     12 C           6.3682   -1.1904    0.0000 C.3     1  UNL1        0.0087
     13 C           5.5021    0.3096    0.0000 C.3     1  UNL1       -0.0147
     14 C           6.3842   -2.2319    0.0000 C.3     1  UNL1        0.0343
     15 C           6.3682    0.8096    0.0000 C.3     1  UNL1        0.0346
     16 C           7.2342   -0.6904    0.0000 C.3     1  UNL1        0.1005
     17 C           7.2342    0.3096    0.0000 C.3     1  UNL1        0.1389
     18 C           4.5921   -1.1973    0.0000 C.3     1  UNL1        0.1124
     19 C           5.4862   -2.7597    0.0000 C.3     1  UNL1        0.1142
     20 C           7.3722   -2.3391    0.0000 C.3     1  UNL1        0.0573
     21 C           4.5841   -2.2389    0.0000 C.3     1  UNL1        0.0227
     22 C           4.5916    0.6740    0.0000 C.3     1  UNL1        0.0026
     23 C           4.6361   -0.1904    0.0000 C.3     1  UNL1       -0.0555
     24 C           6.5078    1.7804    0.0000 C.2     1  UNL1       -0.0317
     25 C           6.8942   -3.0921    0.0000 C.3     1  UNL1       -0.0537
     26 C           7.2342    1.3096    0.0000 C.3     1  UNL1       -0.0520
     27 C           5.8378    2.4966    0.0000 C.3     1  UNL1        0.0844
     28 C           4.3062    1.6124    0.0000 C.3     1  UNL1        0.1572
     29 C           7.3897    2.1961    0.0000 C.2     1  UNL1       -0.0627
     30 C           6.3114    3.3489    0.0000 C.3     1  UNL1       -0.0120
     31 C           7.2686    3.1635    0.0000 C.3     1  UNL1        0.0109
     32 C           8.2659    1.7141    0.0000 C.3     1  UNL1       -0.0429
     33 C           8.9662    0.3096    0.0000 C.2     1  UNL1        0.3323
     34 C           7.9989    3.8466    0.0000 C.ar    1  UNL1       -0.0025
     35 C           2.8602   -1.1772    0.0000 C.2     1  UNL1        0.3042
     36 C           4.6259   -4.2630    0.0000 C.2     1  UNL1        0.3042
     37 C           2.0000   -0.6673    0.0000 C.3     1  UNL1        0.0332
     38 C           8.9808    3.6573    0.0000 C.ar    1  UNL1       -0.0202
     39 C           7.8755    4.8390    0.0000 C.ar    1  UNL1        0.0954
     40 C           9.8322    0.8096    0.0000 C.2     1  UNL1        0.0231
     41 C           4.6298   -5.2630    0.0000 C.3     1  UNL1        0.0332
     42 C           9.4642    4.5327    0.0000 C.ar    1  UNL1        0.0920
     43 C          10.6983    0.3096    0.0000 C.2     1  UNL1       -0.0478
     44 C          11.5643    0.8096    0.0000 C.ar    1  UNL1       -0.0248
     45 C          12.4303    0.3096    0.0000 C.ar    1  UNL1       -0.0546
     46 C          11.5643    1.8096    0.0000 C.ar    1  UNL1       -0.0546
     47 C          13.2964    0.8096    0.0000 C.ar    1  UNL1       -0.0612
     48 C          12.4303    2.3096    0.0000 C.ar    1  UNL1       -0.0612
     49 C          13.2964    1.8096    0.0000 C.ar    1  UNL1       -0.0617
     50 H           5.8336   -1.5046    0.0000 H       1  UNL1        0.0341
     51 H           6.0391   -0.0004    0.0000 H       1  UNL1        0.0318
     52 H           7.8196   -0.4863    0.0000 H       1  UNL1        0.0636
     53 H           7.7711   -0.0004    0.0000 H       1  UNL1        0.0769
     54 H           4.0522   -1.5021    0.0000 H       1  UNL1        0.0741
     55 H           6.0249   -3.0666    0.0000 H       1  UNL1        0.0741
     56 H           7.2249   -2.9413    0.0000 H       1  UNL1        0.0567
     57 H           7.9498   -2.5644    0.0000 H       1  UNL1        0.0567
     58 H           3.9741   -2.1281    0.0000 H       1  UNL1        0.0337
     59 H           4.3705   -2.8209    0.0000 H       1  UNL1        0.0337
     60 H           3.9731    0.6308    0.0000 H       1  UNL1        0.0317
     61 H           4.4956    0.0615    0.0000 H       1  UNL1        0.0317
     62 H           4.9461    0.3465    0.0000 H       1  UNL1        0.0236
     63 H           4.0992    0.1196    0.0000 H       1  UNL1        0.0236
     64 H           4.3261   -0.7274    0.0000 H       1  UNL1        0.0236
     65 H           6.3609   -3.4083    0.0000 H       1  UNL1        0.0237
     66 H           7.2104   -3.6254    0.0000 H       1  UNL1        0.0237
     67 H           7.4275   -2.7759    0.0000 H       1  UNL1        0.0237
     68 H           7.5442    0.7726    0.0000 H       1  UNL1        0.0239
     69 H           7.7711    1.6196    0.0000 H       1  UNL1        0.0239
     70 H           6.9242    1.8465    0.0000 H       1  UNL1        0.0239
     71 H           5.5033    3.0187    0.0000 H       1  UNL1        0.0644
     72 H           3.9002    1.1438    0.0000 H       1  UNL1        0.0908
     73 H           6.4926    3.9418    0.0000 H       1  UNL1        0.0302
     74 H           5.7408    3.5914    0.0000 H       1  UNL1        0.0302
     75 H           7.8516    2.9526    0.0000 H       1  UNL1        0.0396
     76 H           7.9671    1.1709    0.0000 H       1  UNL1        0.0275
     77 H           8.8092    1.4153    0.0000 H       1  UNL1        0.0275
     78 H           8.5647    2.2574    0.0000 H       1  UNL1        0.0275
     79 H           3.0929    2.3419    0.0000 H       1  UNL1        0.2125
     80 H           2.3162   -0.1339    0.0000 H       1  UNL1        0.0342
     81 H           1.4667   -0.3511    0.0000 H       1  UNL1        0.0342
     82 H           1.6838   -1.2006    0.0000 H       1  UNL1        0.0342
     83 H           9.2437    3.0958    0.0000 H       1  UNL1        0.0652
     84 H           7.3327    5.1387    0.0000 H       1  UNL1        0.1032
     85 H           9.8322    1.4296    0.0000 H       1  UNL1        0.0689
     86 H           4.0098   -5.2654    0.0000 H       1  UNL1        0.0342
     87 H           4.6322   -5.8830    0.0000 H       1  UNL1        0.0342
     88 H           5.2498   -5.2606    0.0000 H       1  UNL1        0.0342
     89 H          10.0795    4.6092    0.0000 H       1  UNL1        0.1029
     90 H          10.6983   -0.3104    0.0000 H       1  UNL1        0.0626
     91 H          12.4303   -0.3104    0.0000 H       1  UNL1        0.0623
     92 H          11.0274    2.1196    0.0000 H       1  UNL1        0.0623
     93 H          13.8333    0.4996    0.0000 H       1  UNL1        0.0618
     94 H          12.4303    2.9296    0.0000 H       1  UNL1        0.0618
     95 H          13.8333    2.1196    0.0000 H       1  UNL1        0.0618
@<TRIPOS>BOND
     1     1    16    1
     2     1    20    1
     3     2    17    1
     4     2    33    1
     5     3    18    1
     6     3    35    1
     7     4    19    1
     8     4    36    1
     9     5    27    1
    10     5    28    1
    11     6    28    1
    12     6    79    1
    13     7    33    2
    14     8    35    2
    15     9    36    2
    16    10    39   ar
    17    10    42   ar
    18    11    12    1
    19    11    13    1
    20    11    18    1
    21    11    23    1
    22    12    14    1
    23    12    16    1
    24    12    50    1
    25    13    15    1
    26    13    22    1
    27    13    51    1
    28    14    19    1
    29    14    20    1
    30    14    25    1
    31    15    17    1
    32    15    24    1
    33    15    26    1
    34    16    17    1
    35    16    52    1
    36    17    53    1
    37    18    21    1
    38    18    54    1
    39    19    21    1
    40    19    55    1
    41    20    56    1
    42    20    57    1
    43    21    58    1
    44    21    59    1
    45    22    28    1
    46    22    60    1
    47    22    61    1
    48    23    62    1
    49    23    63    1
    50    23    64    1
    51    24    27    1
    52    24    29    2
    53    25    65    1
    54    25    66    1
    55    25    67    1
    56    26    68    1
    57    26    69    1
    58    26    70    1
    59    27    30    1
    60    27    71    1
    61    28    72    1
    62    29    31    1
    63    29    32    1
    64    30    31    1
    65    30    73    1
    66    30    74    1
    67    31    34    1
    68    31    75    1
    69    32    76    1
    70    32    77    1
    71    32    78    1
    72    33    40    1
    73    34    38   ar
    74    34    39   ar
    75    35    37    1
    76    36    41    1
    77    37    80    1
    78    37    81    1
    79    37    82    1
    80    38    42   ar
    81    38    83    1
    82    39    84    1
    83    40    43    2
    84    40    85    1
    85    41    86    1
    86    41    87    1
    87    41    88    1
    88    42    89    1
    89    43    44    1
    90    43    90    1
    91    44    45   ar
    92    44    46   ar
    93    45    47   ar
    94    45    91    1
    95    46    48   ar
    96    46    92    1
    97    47    49   ar
    98    47    93    1
    99    48    49   ar
   100    48    94    1
   101    49    95    1
