@<TRIPOS>MOLECULE
IMPHY016311
 17 17 0 0 0
SMALL
GASTEIGER

@<TRIPOS>ATOM
      1 O           4.4142    1.2071    0.0000 O.2     1  UNL1       -0.2968
      2 C           3.7071   -0.5000    0.0000 C.3     1  UNL1        0.0156
      3 C           2.7071    0.5000    0.0000 C.3     1  UNL1        0.0156
      4 C           2.7071   -0.5000    0.0000 C.3     1  UNL1       -0.0345
      5 C           3.7071    0.5000    0.0000 C.2     1  UNL1        0.1390
      6 C           4.4142   -1.2071    0.0000 C.3     1  UNL1       -0.0557
      7 C           2.0000    1.2071    0.0000 C.3     1  UNL1       -0.0557
      8 H           4.2799   -0.2627    0.0000 H       1  UNL1        0.0375
      9 H           2.9444    1.0728    0.0000 H       1  UNL1        0.0375
     10 H           2.0871   -0.5000    0.0000 H       1  UNL1        0.0278
     11 H           2.7071   -1.1200    0.0000 H       1  UNL1        0.0278
     12 H           3.9758   -1.6455    0.0000 H       1  UNL1        0.0236
     13 H           4.8526   -1.6455    0.0000 H       1  UNL1        0.0236
     14 H           4.8526   -0.7687    0.0000 H       1  UNL1        0.0236
     15 H           2.4384    1.6455    0.0000 H       1  UNL1        0.0236
     16 H           1.5616    1.6455    0.0000 H       1  UNL1        0.0236
     17 H           1.5616    0.7687    0.0000 H       1  UNL1        0.0236
@<TRIPOS>BOND
     1     1     5    2
     2     2     4    1
     3     2     5    1
     4     2     6    1
     5     2     8    1
     6     3     4    1
     7     3     5    1
     8     3     7    1
     9     3     9    1
    10     4    10    1
    11     4    11    1
    12     6    12    1
    13     6    13    1
    14     6    14    1
    15     7    15    1
    16     7    16    1
    17     7    17    1
