@<TRIPOS>MOLECULE
IMPHY012244
 27 27 0 0 0
SMALL
GASTEIGER

@<TRIPOS>ATOM
      1 O1          3.7320   -0.0600    0.0000 O.3     1  <1>        -0.3731
      2 O2          5.4641    2.9400    0.0000 O.3     1  <1>        -0.4795
      3 O3          3.7320    2.9400    0.0000 O.2     1  <1>        -0.2492
      4 N1          5.4641    0.9400    0.0000 N.3     1  <1>        -0.3166
      5 C1          4.5981    1.4400    0.0000 C.3     1  <1>         0.1268
      6 C2          3.7320    0.9400    0.0000 C.3     1  <1>         0.0736
      7 C3          2.8660   -0.5600    0.0000 C.3     1  <1>         0.0728
      8 C4          2.8660   -1.5600    0.0000 C.ar    1  <1>        -0.0219
      9 C5          2.0000   -2.0600    0.0000 C.ar    1  <1>        -0.0564
     10 C6          3.7320   -2.0600    0.0000 C.ar    1  <1>        -0.0564
     11 C7          4.5981    2.4400    0.0000 C.2     1  <1>         0.3240
     12 C8          2.0000   -3.0600    0.0000 C.ar    1  <1>        -0.0614
     13 C9          3.7320   -3.0600    0.0000 C.ar    1  <1>        -0.0614
     14 C10         2.8660   -3.5600    0.0000 C.ar    1  <1>        -0.0617
     15 H1          5.1350    1.7500    0.0000 H       1  <1>         0.0597
     16 H2          3.5200    1.5226    0.0000 H       1  <1>         0.0581
     17 H3          3.1215    0.8323    0.0000 H       1  <1>         0.0581
     18 H4          2.6540    0.0226    0.0000 H       1  <1>         0.0610
     19 H5          2.2554   -0.6677    0.0000 H       1  <1>         0.0610
     20 H6          1.4631   -1.7500    0.0000 H       1  <1>         0.0621
     21 H7          4.2690   -1.7500    0.0000 H       1  <1>         0.0621
     22 H8          6.0010    1.2500    0.0000 H       1  <1>         0.1190
     23 H9          5.4641    0.3200    0.0000 H       1  <1>         0.1190
     24 H10         1.4631   -3.3700    0.0000 H       1  <1>         0.0618
     25 H11         4.2690   -3.3700    0.0000 H       1  <1>         0.0618
     26 H12         2.8660   -4.1800    0.0000 H       1  <1>         0.0618
     27 H13         5.4641    3.5600    0.0000 H       1  <1>         0.2951
@<TRIPOS>BOND
     1     1     6    1
     2     1     7    1
     3     2    11    1
     4     2    27    1
     5     3    11    2
     6     5     4    1
     7     4    22    1
     8     4    23    1
     9     5     6    1
    10     5    11    1
    11     5    15    1
    12     6    16    1
    13     6    17    1
    14     7     8    1
    15     7    18    1
    16     7    19    1
    17     8     9   ar
    18     8    10   ar
    19     9    12   ar
    20     9    20    1
    21    10    13   ar
    22    10    21    1
    23    12    14   ar
    24    12    24    1
    25    13    14   ar
    26    13    25    1
    27    14    26    1
