@<TRIPOS>MOLECULE
IMPHY010755
 35 39 0 0 0
SMALL
GASTEIGER

@<TRIPOS>ATOM
      1 C           5.8580   -5.7686    0.0000 C.3     1  UNL1       -0.0037
      2 C           7.0207   -5.0978    0.0000 C.3     1  UNL1       -0.0039
      3 C           3.4880   -5.7686    0.0000 C.3     1  UNL1       -0.0060
      4 C           4.6507   -5.0978    0.0000 C.3     1  UNL1       -0.0193
      5 C           7.0207   -3.7563    0.0000 C.3     1  UNL1       -0.0225
      6 C           8.1834   -3.1303    0.0000 C.3     1  UNL1       -0.0224
      7 C           3.4880   -7.1101    0.0000 C.3     1  UNL1       -0.0131
      8 C           9.3460   -3.7563    0.0000 C.3     1  UNL1       -0.0036
      9 C           5.8580   -7.1101    0.0000 C.3     1  UNL1       -0.0006
     10 C           8.1834   -5.7686    0.0000 C.3     1  UNL1       -0.0003
     11 C           4.6507   -3.7563    0.0000 C.3     1  UNL1       -0.0043
     12 C           5.8580   -3.1303    0.0000 C.3     1  UNL1       -0.0045
     13 C           4.6507   -7.7809    0.0000 C.3     1  UNL1       -0.0036
     14 C           2.3253   -7.7809    0.0000 C.3     1  UNL1        0.0482
     15 C           8.1834   -1.7887    0.0000 C.3     1  UNL1       -0.0042
     16 C           9.3460   -5.0978    0.0000 C.3     1  UNL1       -0.0003
     17 C           9.3460   -1.1179    0.0000 C.3     1  UNL1       -0.0003
     18 C          10.5087   -3.1303    0.0000 C.3     1  UNL1       -0.0003
     19 C           2.3253   -5.0978    0.0000 C.3     1  UNL1        0.0072
     20 C          10.4640   -1.7887    0.0000 C.3     1  UNL1       -0.0000
     21 C           5.8133   -4.5165    0.0000 C.3     1  UNL1       -0.0003
     22 C           7.0207   -6.5288    0.0000 C.3     1  UNL1       -0.0003
     23 C           3.4880   -4.4271    0.0000 C.3     1  UNL1       -0.0006
     24 C           9.3013   -2.4595    0.0000 C.3     1  UNL1       -0.0003
     25 C           1.1627   -7.1101    0.0000 C.2     1  UNL1        0.1496
     26 C           1.1627   -5.7686    0.0000 C.3     1  UNL1        0.0644
     27 C           1.8334   -8.9436    0.0000 C.3     1  UNL1        0.0070
     28 C           2.8172   -8.8989    0.0000 C.3     1  UNL1        0.0070
     29 C          10.0615    0.0000    0.0000 C.3     1  UNL1       -0.0000
     30 C           8.5411   -0.0447    0.0000 C.3     1  UNL1       -0.0000
     31 H           3.4880   -8.4070    0.0000 H       1  UNL1        0.0322
     32 H           4.6507   -6.3947    0.0000 H       1  UNL1        0.0318
     33 H           6.9760   -2.4595    0.0000 H       1  UNL1        0.0316
     34 H           8.1834   -4.4271    0.0000 H       1  UNL1        0.0316
     35 O           0.0000   -7.7809    0.0000 O.2     1  UNL1       -0.2961
@<TRIPOS>BOND
     1     1     9    1
     2     1    21    1
     3     1     2    1
     4     1     4    1
     5     2     5    1
     6     2    10    1
     7     2    22    1
     8     3    19    1
     9     3    23    1
    10     3     7    1
    11     3     4    1
    12     4    11    1
    13     4    32    1
    14     5     6    1
    15     5    12    1
    16     5    33    1
    17     6    15    1
    18     6     8    1
    19     6    34    1
    20     7    13    1
    21     7    14    1
    22     7    31    1
    23     8    16    1
    24     8    18    1
    25     8    24    1
    26     9    13    1
    27    10    16    1
    28    11    12    1
    29    14    25    1
    30    14    27    1
    31    14    28    1
    32    15    17    1
    33    17    29    1
    34    17    30    1
    35    17    20    1
    36    18    20    1
    37    19    26    1
    38    25    26    1
    39    25    35    2
