@<TRIPOS>MOLECULE
IMPHY005042
 38 38 0 0 0
SMALL
GASTEIGER

@<TRIPOS>ATOM
      1 O           2.8660    2.2500    0.0000 O.3     1  UNL1       -0.3877
      2 C           2.8660    0.2500    0.0000 C.3     1  UNL1       -0.0161
      3 C           3.7320    0.7500    0.0000 C.3     1  UNL1       -0.0167
      4 C           3.7320    1.7500    0.0000 C.3     1  UNL1        0.0741
      5 C           2.8660   -0.7500    0.0000 C.ar    1  UNL1       -0.0444
      6 C           2.0000    0.7500    0.0000 C.3     1  UNL1       -0.0583
      7 C           4.5981    2.2500    0.0000 C.2     1  UNL1       -0.0572
      8 C           2.0000   -1.2500    0.0000 C.ar    1  UNL1       -0.0581
      9 C           3.7320   -1.2500    0.0000 C.ar    1  UNL1       -0.0581
     10 C           2.0000   -2.2500    0.0000 C.ar    1  UNL1       -0.0586
     11 C           3.7320   -2.2500    0.0000 C.ar    1  UNL1       -0.0586
     12 C           4.5981    3.2500    0.0000 C.2     1  UNL1       -0.0772
     13 C           2.8660   -2.7500    0.0000 C.ar    1  UNL1       -0.0504
     14 C           5.4641    3.7500    0.0000 C.3     1  UNL1       -0.0440
     15 C           3.7320    3.7500    0.0000 C.3     1  UNL1       -0.0440
     16 C           2.8660   -3.7500    0.0000 C.3     1  UNL1       -0.0397
     17 H           2.8660    0.8700    0.0000 H       1  UNL1        0.0347
     18 H           3.9441    0.1674    0.0000 H       1  UNL1        0.0299
     19 H           4.3426    0.8577    0.0000 H       1  UNL1        0.0299
     20 H           3.7320    2.3700    0.0000 H       1  UNL1        0.0638
     21 H           2.3100    1.2869    0.0000 H       1  UNL1        0.0236
     22 H           1.4631    1.0600    0.0000 H       1  UNL1        0.0236
     23 H           1.6900    0.2131    0.0000 H       1  UNL1        0.0236
     24 H           5.1350    1.9400    0.0000 H       1  UNL1        0.0597
     25 H           1.4631   -0.9400    0.0000 H       1  UNL1        0.0620
     26 H           4.2690   -0.9400    0.0000 H       1  UNL1        0.0620
     27 H           1.4631   -2.5600    0.0000 H       1  UNL1        0.0620
     28 H           4.2690   -2.5600    0.0000 H       1  UNL1        0.0620
     29 H           2.8660    2.8700    0.0000 H       1  UNL1        0.2102
     30 H           5.7741    3.2131    0.0000 H       1  UNL1        0.0274
     31 H           6.0010    4.0600    0.0000 H       1  UNL1        0.0274
     32 H           5.1541    4.2869    0.0000 H       1  UNL1        0.0274
     33 H           4.0420    4.2869    0.0000 H       1  UNL1        0.0274
     34 H           3.1951    4.0600    0.0000 H       1  UNL1        0.0274
     35 H           3.4220    3.2131    0.0000 H       1  UNL1        0.0274
     36 H           2.2460   -3.7500    0.0000 H       1  UNL1        0.0278
     37 H           2.8660   -4.3700    0.0000 H       1  UNL1        0.0278
     38 H           3.4860   -3.7500    0.0000 H       1  UNL1        0.0278
@<TRIPOS>BOND
     1     1     4    1
     2     1    29    1
     3     2     3    1
     4     2     5    1
     5     2     6    1
     6     2    17    1
     7     3     4    1
     8     3    18    1
     9     3    19    1
    10     4     7    1
    11     4    20    1
    12     5     8   ar
    13     5     9   ar
    14     6    21    1
    15     6    22    1
    16     6    23    1
    17     7    12    2
    18     7    24    1
    19     8    10   ar
    20     8    25    1
    21     9    11   ar
    22     9    26    1
    23    10    13   ar
    24    10    27    1
    25    11    13   ar
    26    11    28    1
    27    12    14    1
    28    12    15    1
    29    13    16    1
    30    14    30    1
    31    14    31    1
    32    14    32    1
    33    15    33    1
    34    15    34    1
    35    15    35    1
    36    16    36    1
    37    16    37    1
    38    16    38    1
