@<TRIPOS>MOLECULE
IMPHY000675
 34 37 0 0 0
SMALL
GASTEIGER

@<TRIPOS>ATOM
      1 O           4.3798   -0.2431    0.0000 O.2     1  UNL1       -0.4502
      2 O           2.5836   -3.0894    0.0000 O.2     1  UNL1       -0.4628
      3 O           7.0479    0.2605    0.0000 O.3     1  UNL1       -0.4883
      4 O           7.0321   -1.7878    0.0000 O.2     1  UNL1       -0.2831
      5 C           4.3958   -1.2846    0.0000 C.ar    1  UNL1        0.1503
      6 C           5.2619   -1.7846    0.0000 C.ar    1  UNL1        0.0685
      7 C           3.5298   -1.7846    0.0000 C.ar    1  UNL1        0.0630
      8 C           3.5298   -2.7846    0.0000 C.ar    1  UNL1        0.1383
      9 C           5.2778    0.2846    0.0000 C.ar    1  UNL1        0.1808
     10 C           6.1719   -1.2778    0.0000 C.ar    1  UNL1        0.2346
     11 C           6.1799   -0.2362    0.0000 C.ar    1  UNL1        0.2105
     12 C           5.2619   -2.7846    0.0000 C.ar    1  UNL1       -0.0438
     13 C           4.3958   -3.2846    0.0000 C.ar    1  UNL1       -0.0179
     14 C           5.2740    1.2846    0.0000 C.ar    1  UNL1        0.0211
     15 C           2.5836   -1.4799    0.0000 C.ar    1  UNL1       -0.0126
     16 C           2.0000   -2.2846    0.0000 C.ar    1  UNL1        0.0932
     17 C           6.1381    1.7880    0.0000 C.ar    1  UNL1       -0.0510
     18 C           4.4060    1.7813    0.0000 C.ar    1  UNL1       -0.0510
     19 C           6.1342    2.7880    0.0000 C.ar    1  UNL1       -0.0611
     20 C           4.4022    2.7813    0.0000 C.ar    1  UNL1       -0.0611
     21 C           5.2663    3.2846    0.0000 C.ar    1  UNL1       -0.0617
     22 C           7.9120   -0.2428    0.0000 C.3     1  UNL1        0.0791
     23 H           5.7988   -3.0946    0.0000 H       1  UNL1        0.0627
     24 H           4.3958   -3.9046    0.0000 H       1  UNL1        0.0655
     25 H           2.3910   -0.8906    0.0000 H       1  UNL1        0.0656
     26 H           1.3800   -2.2846    0.0000 H       1  UNL1        0.1030
     27 H           6.6762    1.4800    0.0000 H       1  UNL1        0.0625
     28 H           3.8703    1.4692    0.0000 H       1  UNL1        0.0625
     29 H           6.6700    3.1000    0.0000 H       1  UNL1        0.0618
     30 H           3.8640    3.0892    0.0000 H       1  UNL1        0.0618
     31 H           5.2639    3.9046    0.0000 H       1  UNL1        0.0618
     32 H           7.5999   -0.7786    0.0000 H       1  UNL1        0.0660
     33 H           8.4477   -0.5549    0.0000 H       1  UNL1        0.0660
     34 H           8.2240    0.2929    0.0000 H       1  UNL1        0.0660
@<TRIPOS>BOND
     1     1     5   ar
     2     1     9   ar
     3     2     8   ar
     4     2    16   ar
     5     3    11    1
     6     3    22    1
     7     4    10    2
     8     5     6   ar
     9     5     7   ar
    10     6    10   ar
    11     6    12   ar
    12     7     8   ar
    13     7    15   ar
    14     8    13   ar
    15     9    11   ar
    16     9    14    1
    17    10    11   ar
    18    12    13   ar
    19    12    23    1
    20    13    24    1
    21    14    17   ar
    22    14    18   ar
    23    15    16   ar
    24    15    25    1
    25    16    26    1
    26    17    19   ar
    27    17    27    1
    28    18    20   ar
    29    18    28    1
    30    19    21   ar
    31    19    29    1
    32    20    21   ar
    33    20    30    1
    34    21    31    1
    35    22    32    1
    36    22    33    1
    37    22    34    1
