@<TRIPOS>MOLECULE
IMPHY009329
 39 42 0 0 0
SMALL
GASTEIGER

@<TRIPOS>ATOM
      1 O           2.5405   -1.1508    0.0000 O.3     1  UNL1       -0.3908
      2 O           2.5247    1.8911    0.0000 O.3     1  UNL1       -0.4914
      3 O           4.2986    2.9153    0.0000 O.3     1  UNL1       -0.5033
      4 N           6.0427   -1.1540    0.0000 N.3     1  UNL1       -0.2906
      5 C           5.1767   -1.6540    0.0000 C.3     1  UNL1        0.0412
      6 C           4.3107   -1.1540    0.0000 C.3     1  UNL1        0.0302
      7 C           5.1928   -2.6955    0.0000 C.2     1  UNL1       -0.0545
      8 C           3.4007   -1.6608    0.0000 C.3     1  UNL1        0.0672
      9 C           6.6606   -1.9323    0.0000 C.3     1  UNL1        0.0035
     10 C           6.1808   -2.8026    0.0000 C.3     1  UNL1       -0.0174
     11 C           4.3107   -0.1540    0.0000 C.ar    1  UNL1       -0.0319
     12 C           6.0427   -0.1540    0.0000 C.3     1  UNL1        0.0250
     13 C           3.3926   -2.7024    0.0000 C.3     1  UNL1       -0.0077
     14 C           5.1767    0.3460    0.0000 C.ar    1  UNL1       -0.0261
     15 C           4.2947   -3.2232    0.0000 C.2     1  UNL1       -0.0808
     16 C           3.4007    0.3529    0.0000 C.ar    1  UNL1       -0.0124
     17 C           5.1928    1.3876    0.0000 C.ar    1  UNL1       -0.0118
     18 C           3.3926    1.3945    0.0000 C.ar    1  UNL1        0.1616
     19 C           4.2947    1.9153    0.0000 C.ar    1  UNL1        0.1588
     20 C           2.5208    2.8911    0.0000 C.3     1  UNL1        0.0790
     21 H           4.4406   -2.0790    0.0000 H       1  UNL1        0.0516
     22 H           5.0468   -0.7290    0.0000 H       1  UNL1        0.0393
     23 H           3.4090   -1.0409    0.0000 H       1  UNL1        0.0603
     24 H           7.1595   -2.3005    0.0000 H       1  UNL1        0.0430
     25 H           7.0913   -1.4863    0.0000 H       1  UNL1        0.0430
     26 H           6.0334   -3.4048    0.0000 H       1  UNL1        0.0323
     27 H           6.7584   -3.0279    0.0000 H       1  UNL1        0.0323
     28 H           6.6533   -0.2616    0.0000 H       1  UNL1        0.0476
     29 H           6.2548    0.4286    0.0000 H       1  UNL1        0.0476
     30 H           2.7826   -2.5916    0.0000 H       1  UNL1        0.0333
     31 H           3.1791   -3.2845    0.0000 H       1  UNL1        0.0333
     32 H           4.2971   -3.8432    0.0000 H       1  UNL1        0.0573
     33 H           2.8674    0.0367    0.0000 H       1  UNL1        0.0658
     34 H           5.7332    1.6913    0.0000 H       1  UNL1        0.0658
     35 H           2.0000   -1.4546    0.0000 H       1  UNL1        0.2098
     36 H           4.8367    3.2232    0.0000 H       1  UNL1        0.2923
     37 H           3.1408    2.8935    0.0000 H       1  UNL1        0.0660
     38 H           2.5184    3.5111    0.0000 H       1  UNL1        0.0660
     39 H           1.9008    2.8888    0.0000 H       1  UNL1        0.0660
@<TRIPOS>BOND
     1     8     1    1
     2     1    35    1
     3     2    18    1
     4     2    20    1
     5     3    19    1
     6     3    36    1
     7     4     5    1
     8     4     9    1
     9     4    12    1
    10     5     6    1
    11     5     7    1
    12     5    21    1
    13     6     8    1
    14     6    11    1
    15     6    22    1
    16     7    10    1
    17     7    15    2
    18     8    13    1
    19     8    23    1
    20     9    10    1
    21     9    24    1
    22     9    25    1
    23    10    26    1
    24    10    27    1
    25    11    14   ar
    26    11    16   ar
    27    12    14    1
    28    12    28    1
    29    12    29    1
    30    13    15    1
    31    13    30    1
    32    13    31    1
    33    14    17   ar
    34    15    32    1
    35    16    18   ar
    36    16    33    1
    37    17    19   ar
    38    17    34    1
    39    18    19   ar
    40    20    37    1
    41    20    38    1
    42    20    39    1
