@<TRIPOS>MOLECULE
IMPHY008855
 35 35 0 0 0
SMALL
GASTEIGER

@<TRIPOS>ATOM
      1 O           2.8660    1.7500    0.0000 O.3     1  UNL1       -0.4913
      2 O           6.3301    1.7500    0.0000 O.3     1  UNL1       -0.4913
      3 O           4.5981    2.7500    0.0000 O.3     1  UNL1       -0.4885
      4 N           3.7320   -2.7500    0.0000 N.3     1  UNL1       -0.3187
      5 C           4.5981   -1.2500    0.0000 C.3     1  UNL1       -0.0149
      6 C           4.5981   -0.2500    0.0000 C.ar    1  UNL1       -0.0390
      7 C           3.7320   -1.7500    0.0000 C.3     1  UNL1       -0.0004
      8 C           5.4641    0.2500    0.0000 C.ar    1  UNL1       -0.0128
      9 C           3.7320    0.2500    0.0000 C.ar    1  UNL1       -0.0128
     10 C           3.7320    1.2500    0.0000 C.ar    1  UNL1        0.1654
     11 C           5.4641    1.2500    0.0000 C.ar    1  UNL1        0.1654
     12 C           4.5981    1.7500    0.0000 C.ar    1  UNL1        0.2035
     13 C           2.8660   -3.2500    0.0000 C.3     1  UNL1       -0.0158
     14 C           2.0000    1.2500    0.0000 C.3     1  UNL1        0.0790
     15 C           7.1962    1.2500    0.0000 C.3     1  UNL1        0.0790
     16 C           5.4641    3.2500    0.0000 C.3     1  UNL1        0.0791
     17 H           4.8101   -1.8326    0.0000 H       1  UNL1        0.0326
     18 H           5.2087   -1.1423    0.0000 H       1  UNL1        0.0326
     19 H           3.5200   -1.1674    0.0000 H       1  UNL1        0.0427
     20 H           3.1215   -1.8577    0.0000 H       1  UNL1        0.0427
     21 H           6.0010   -0.0600    0.0000 H       1  UNL1        0.0658
     22 H           3.1951   -0.0600    0.0000 H       1  UNL1        0.0658
     23 H           4.2690   -3.0600    0.0000 H       1  UNL1        0.1216
     24 H           2.5560   -2.7131    0.0000 H       1  UNL1        0.0388
     25 H           2.3291   -3.5600    0.0000 H       1  UNL1        0.0388
     26 H           3.1760   -3.7869    0.0000 H       1  UNL1        0.0388
     27 H           1.6900    1.7869    0.0000 H       1  UNL1        0.0660
     28 H           1.4631    0.9400    0.0000 H       1  UNL1        0.0660
     29 H           2.3100    0.7131    0.0000 H       1  UNL1        0.0660
     30 H           6.8862    0.7131    0.0000 H       1  UNL1        0.0660
     31 H           7.7331    0.9400    0.0000 H       1  UNL1        0.0660
     32 H           7.5062    1.7869    0.0000 H       1  UNL1        0.0660
     33 H           5.7741    2.7131    0.0000 H       1  UNL1        0.0660
     34 H           6.0010    3.5600    0.0000 H       1  UNL1        0.0660
     35 H           5.1541    3.7869    0.0000 H       1  UNL1        0.0660
@<TRIPOS>BOND
     1     1    10    1
     2     1    14    1
     3     2    11    1
     4     2    15    1
     5     3    12    1
     6     3    16    1
     7     4     7    1
     8     4    13    1
     9     4    23    1
    10     5     6    1
    11     5     7    1
    12     5    17    1
    13     5    18    1
    14     6     8   ar
    15     6     9   ar
    16     7    19    1
    17     7    20    1
    18     8    11   ar
    19     8    21    1
    20     9    10   ar
    21     9    22    1
    22    10    12   ar
    23    11    12   ar
    24    13    24    1
    25    13    25    1
    26    13    26    1
    27    14    27    1
    28    14    28    1
    29    14    29    1
    30    15    30    1
    31    15    31    1
    32    15    32    1
    33    16    33    1
    34    16    34    1
    35    16    35    1
