@<TRIPOS>MOLECULE
IMPHY002329
 25 28 0 0 0
SMALL
GASTEIGER

@<TRIPOS>ATOM
      1 O        2551.7800 2453.5800    0.0000 O.3     1  UNL1       -0.4522
      2 C        2586.4000 2473.6100    0.0000 C.2     1  UNL1        0.3174
      3 C        2621.0200 2453.5800    0.0000 C.3     1  UNL1        0.1212
      4 O        2586.4000 2513.5900    0.0000 O.2     1  UNL1       -0.2501
      5 C        2517.1600 2473.6100    0.0000 C.3     1  UNL1        0.1701
      6 C        2482.6400 2453.4800    0.0000 C.3     1  UNL1        0.0536
      7 C        2448.1200 2473.6100    0.0000 C.3     1  UNL1        0.0489
      8 C        2448.1200 2513.8900    0.0000 C.3     1  UNL1        0.0172
      9 C        2482.6400 2534.0200    0.0000 C.3     1  UNL1        0.0450
     10 C        2517.1600 2513.8900    0.0000 C.3     1  UNL1        0.0473
     11 C        2482.6400 2574.3000    0.0000 C.3     1  UNL1        0.1688
     12 C        2442.3700 2574.3000    0.0000 C.3     1  UNL1        0.0415
     13 C        2413.1000 2493.6500    0.0000 C.3     1  UNL1        0.0184
     14 C        2419.3500 2607.0300    0.0000 C.3     1  UNL1        0.0037
     15 O        2517.2600 2594.2400    0.0000 O.3     1  UNL1       -0.4523
     16 C        2551.8800 2574.3000    0.0000 C.2     1  UNL1        0.3174
     17 C        2586.5000 2594.2400    0.0000 C.3     1  UNL1        0.1212
     18 O        2551.8800 2534.3200    0.0000 O.2     1  UNL1       -0.2501
     19 C        2413.5000 2534.0200    0.0000 C.3     1  UNL1        0.0028
     20 C        2378.9800 2513.8900    0.0000 C.3     1  UNL1        0.0174
     21 C        2378.9800 2473.6100    0.0000 C.3     1  UNL1        0.0720
     22 N        2413.5000 2453.4800    0.0000 N.3     1  UNL1       -0.2751
     23 C        2413.5000 2413.2000    0.0000 C.3     1  UNL1        0.0720
     24 C        2448.1200 2392.9700    0.0000 C.3     1  UNL1        0.0175
     25 C        2482.6400 2413.2000    0.0000 C.3     1  UNL1        0.0063
@<TRIPOS>BOND
     1     1     2    1
     2     2     3    1
     3     2     4    2
     4     5     1    1
     5     5     6    1
     6     5    10    1
     7     6     7    1
     8     6    25    1
     9     7     8    1
    10     7    13    1
    11     7    22    1
    12     8    19    1
    13     9     8    1
    14     9    11    1
    15     9    10    1
    16    11    12    1
    17    11    15    1
    18    12    14    1
    19    13    12    1
    20    15    16    1
    21    16    17    1
    22    16    18    2
    23    19    20    1
    24    21    20    1
    25    22    21    1
    26    22    23    1
    27    24    23    1
    28    25    24    1
