@<TRIPOS>MOLECULE
IMPHY012217
 45 48 0 0 0
SMALL
GASTEIGER

@<TRIPOS>ATOM
      1 CL          5.0655    0.0000    0.0000 Cl      1  UNL1        0.0000
      2 O           1.0688    6.3809    0.0000 O.3     2  UNL2       -0.4526
      3 O           1.0688    8.0574    0.0000 O.3     2  UNL2       -0.4526
      4 O           7.4360    3.6210    0.0000 O.3     2  UNL2       -0.4907
      5 O           9.2475    4.6668    0.0000 O.3     2  UNL2       -0.4914
      6 N           4.7044    5.1777    0.0000 N.ar    2  UNL2       -0.1986
      7 C           4.7204    6.2192    0.0000 C.ar    2  UNL2        0.2231
      8 C           5.5864    6.7192    0.0000 C.ar    2  UNL2        0.0548
      9 C           3.8544    6.7192    0.0000 C.ar    2  UNL2        0.0576
     10 C           6.4964    6.2123    0.0000 C.ar    2  UNL2        0.0050
     11 C           6.5045    5.1707    0.0000 C.ar    2  UNL2        0.0915
     12 C           3.8544    7.7192    0.0000 C.ar    2  UNL2       -0.0079
     13 C           5.6024    4.6499    0.0000 C.ar    2  UNL2        0.1829
     14 C           5.5864    7.7192    0.0000 C.ar    2  UNL2       -0.0471
     15 C           2.9604    6.1845    0.0000 C.ar    2  UNL2       -0.0021
     16 C           4.7204    8.2192    0.0000 C.ar    2  UNL2       -0.0529
     17 C           2.9604    8.2538    0.0000 C.ar    2  UNL2       -0.0082
     18 C           2.0544    6.6984    0.0000 C.ar    2  UNL2        0.1670
     19 C           7.4399    4.6210    0.0000 C.ar    2  UNL2        0.1748
     20 C           7.4233    6.7764    0.0000 C.ar    2  UNL2       -0.0494
     21 C           2.0544    7.7400    0.0000 C.ar    2  UNL2        0.1668
     22 C           3.8326    4.6877    0.0000 C.3     2  UNL2        0.1410
     23 C           8.3795    5.1635    0.0000 C.ar    2  UNL2        0.1623
     24 C           8.3712    6.2484    0.0000 C.ar    2  UNL2       -0.0157
     25 C           0.4609    7.2192    0.0000 C.3     2  UNL2        0.2332
     26 C           8.3001    3.1177    0.0000 C.3     2  UNL2        0.0790
     27 C          10.1116    5.1702    0.0000 C.3     2  UNL2        0.0790
     28 H           5.6000    4.0299    0.0000 H       2  UNL2        0.1384
     29 H           6.1234    8.0292    0.0000 H       2  UNL2        0.0626
     30 H           2.9676    5.5645    0.0000 H       2  UNL2        0.0663
     31 H           4.7204    8.8392    0.0000 H       2  UNL2        0.0624
     32 H           2.9676    8.8738    0.0000 H       2  UNL2        0.0661
     33 H           7.4113    7.3963    0.0000 H       2  UNL2        0.0625
     34 H           3.5288    5.2282    0.0000 H       2  UNL2        0.0993
     35 H           3.2921    4.3839    0.0000 H       2  UNL2        0.0993
     36 H           4.1364    4.1472    0.0000 H       2  UNL2        0.0993
     37 H           8.9045    6.5646    0.0000 H       2  UNL2        0.0655
     38 H           0.0000    7.6339    0.0000 H       2  UNL2        0.1166
     39 H           0.0000    6.8044    0.0000 H       2  UNL2        0.1166
     40 H           7.9881    2.5819    0.0000 H       2  UNL2        0.0660
     41 H           8.8359    2.8056    0.0000 H       2  UNL2        0.0660
     42 H           8.6122    3.6534    0.0000 H       2  UNL2        0.0660
     43 H          10.4236    4.6344    0.0000 H       2  UNL2        0.0660
     44 H          10.6473    5.4822    0.0000 H       2  UNL2        0.0660
     45 H           9.7995    5.7059    0.0000 H       2  UNL2        0.0660
@<TRIPOS>UNITY_ATOM_ATTR
1 1
charge -1
6 1
charge 1
@<TRIPOS>BOND
     1     2    18    1
     2     2    25    1
     3     3    21    1
     4     3    25    1
     5     4    19    1
     6     4    26    1
     7     5    23    1
     8     5    27    1
     9     6     7   ar
    10     6    13   ar
    11     6    22    1
    12     7     8   ar
    13     7     9   ar
    14     8    10   ar
    15     8    14   ar
    16     9    12   ar
    17     9    15   ar
    18    10    11   ar
    19    10    20   ar
    20    11    13   ar
    21    11    19   ar
    22    12    16   ar
    23    12    17   ar
    24    13    28    1
    25    14    16   ar
    26    14    29    1
    27    15    18   ar
    28    15    30    1
    29    16    31    1
    30    17    21   ar
    31    17    32    1
    32    18    21   ar
    33    19    23   ar
    34    20    24   ar
    35    20    33    1
    36    22    34    1
    37    22    35    1
    38    22    36    1
    39    23    24   ar
    40    24    37    1
    41    25    38    1
    42    25    39    1
    43    26    40    1
    44    26    41    1
    45    26    42    1
    46    27    43    1
    47    27    44    1
    48    27    45    1
