@<TRIPOS>MOLECULE
IMPHY007142
 42 44 0 0 0
SMALL
GASTEIGER

@<TRIPOS>ATOM
      1 O           9.3203    1.1400    0.0000 O.3     1  UNL1       -0.2738
      2 O           4.6241   -1.3651    0.0000 O.3     1  UNL1       -0.4115
      3 O           3.3325   -0.2111    0.0000 O.2     1  UNL1       -0.2260
      4 N           7.4959    1.4955    0.0000 N.pl3   1  UNL1       -0.3053
      5 N          10.0232    0.3713    0.0000 N.3     1  UNL1       -0.1888
      6 N           2.9789   -1.9066    0.0000 N.am    1  UNL1       -0.2839
      7 C           7.9959   -0.0433    0.0000 C.3     1  UNL1        0.0407
      8 C           8.3049    0.9078    0.0000 C.3     1  UNL1        0.1554
      9 C           8.6808   -0.8280    0.0000 C.3     1  UNL1       -0.0245
     10 C           6.9959   -0.0433    0.0000 C.ar    1  UNL1       -0.0128
     11 C           6.6869    0.9078    0.0000 C.ar    1  UNL1        0.0355
     12 C           7.6869   -0.9944    0.0000 C.3     1  UNL1       -0.0514
     13 C           9.7014   -0.6193    0.0000 C.3     1  UNL1        0.0253
     14 C           6.3109   -0.8280    0.0000 C.ar    1  UNL1       -0.0136
     15 C           7.4959    2.4955    0.0000 C.3     1  UNL1        0.0031
     16 C           5.6715    1.1400    0.0000 C.ar    1  UNL1       -0.0368
     17 C           5.2904   -0.6193    0.0000 C.ar    1  UNL1        0.1336
     18 C          11.0006    0.5830    0.0000 C.3     1  UNL1        0.0131
     19 C           4.9685    0.3713    0.0000 C.ar    1  UNL1       -0.0174
     20 C           3.6452   -1.1609    0.0000 C.2     1  UNL1        0.4053
     21 C           2.0000   -1.7025    0.0000 C.3     1  UNL1        0.0032
     22 H           8.4752    1.7405    0.0000 H       1  UNL1        0.0837
     23 H           8.1509   -1.1498    0.0000 H       1  UNL1        0.0288
     24 H           8.9072   -1.4053    0.0000 H       1  UNL1        0.0288
     25 H           7.0972   -0.8028    0.0000 H       1  UNL1        0.0240
     26 H           7.4953   -1.5840    0.0000 H       1  UNL1        0.0240
     27 H           8.2765   -1.1860    0.0000 H       1  UNL1        0.0240
     28 H           9.7198   -1.2391    0.0000 H       1  UNL1        0.0450
     29 H          10.3151   -0.7072    0.0000 H       1  UNL1        0.0450
     30 H           6.5093   -1.4154    0.0000 H       1  UNL1        0.0658
     31 H           8.1159    2.4955    0.0000 H       1  UNL1        0.0428
     32 H           7.4959    3.1155    0.0000 H       1  UNL1        0.0428
     33 H           6.8759    2.4955    0.0000 H       1  UNL1        0.0428
     34 H           5.4867    1.7318    0.0000 H       1  UNL1        0.0637
     35 H          11.1318   -0.0230    0.0000 H       1  UNL1        0.0414
     36 H          11.6065    0.7142    0.0000 H       1  UNL1        0.0414
     37 H          10.8693    1.1890    0.0000 H       1  UNL1        0.0414
     38 H           4.3626    0.5026    0.0000 H       1  UNL1        0.0655
     39 H           3.1728   -2.4955    0.0000 H       1  UNL1        0.1517
     40 H           2.1266   -1.0955    0.0000 H       1  UNL1        0.0427
     41 H           1.3931   -1.5759    0.0000 H       1  UNL1        0.0427
     42 H           1.8734   -2.3094    0.0000 H       1  UNL1        0.0427
@<TRIPOS>BOND
     1     1     5    1
     2     1     8    1
     3     2    17    1
     4     2    20    1
     5     3    20    2
     6     4     8    1
     7     4    11    1
     8     4    15    1
     9     5    13    1
    10     5    18    1
    11     6    20   am
    12     6    21    1
    13     6    39    1
    14     7     8    1
    15     7     9    1
    16     7    10    1
    17     7    12    1
    18     8    22    1
    19     9    13    1
    20     9    23    1
    21     9    24    1
    22    10    11   ar
    23    10    14   ar
    24    11    16   ar
    25    12    25    1
    26    12    26    1
    27    12    27    1
    28    13    28    1
    29    13    29    1
    30    14    17   ar
    31    14    30    1
    32    15    31    1
    33    15    32    1
    34    15    33    1
    35    16    19   ar
    36    16    34    1
    37    17    19   ar
    38    18    35    1
    39    18    36    1
    40    18    37    1
    41    19    38    1
    42    21    40    1
    43    21    41    1
    44    21    42    1
