@<TRIPOS>MOLECULE
IMPHY007100
 39 38 0 0 0
SMALL
GASTEIGER

@<TRIPOS>ATOM
      1 O          12.3923   -0.2500    0.0000 O.3     1  UNL1       -0.3950
      2 C           7.1962   -0.2500    0.0000 C.3     1  UNL1       -0.0531
      3 C           6.3301    0.2500    0.0000 C.3     1  UNL1       -0.0531
      4 C           8.0622    0.2500    0.0000 C.3     1  UNL1       -0.0531
      5 C           5.4641   -0.2500    0.0000 C.3     1  UNL1       -0.0531
      6 C           8.9282   -0.2500    0.0000 C.3     1  UNL1       -0.0530
      7 C           4.5981    0.2500    0.0000 C.3     1  UNL1       -0.0531
      8 C           9.7942    0.2500    0.0000 C.3     1  UNL1       -0.0510
      9 C           3.7320   -0.2500    0.0000 C.3     1  UNL1       -0.0533
     10 C          10.6603   -0.2500    0.0000 C.3     1  UNL1       -0.0297
     11 C           2.8660    0.2500    0.0000 C.3     1  UNL1       -0.0559
     12 C          11.5263    0.2500    0.0000 C.3     1  UNL1        0.0442
     13 C           2.0000   -0.2500    0.0000 C.3     1  UNL1       -0.0653
     14 H           6.7976   -0.7249    0.0000 H       1  UNL1        0.0265
     15 H           7.5947   -0.7249    0.0000 H       1  UNL1        0.0265
     16 H           6.7287    0.7249    0.0000 H       1  UNL1        0.0265
     17 H           5.9316    0.7249    0.0000 H       1  UNL1        0.0265
     18 H           8.4607    0.7249    0.0000 H       1  UNL1        0.0265
     19 H           7.6636    0.7249    0.0000 H       1  UNL1        0.0265
     20 H           5.0656   -0.7249    0.0000 H       1  UNL1        0.0265
     21 H           5.8626   -0.7249    0.0000 H       1  UNL1        0.0265
     22 H           8.5297   -0.7249    0.0000 H       1  UNL1        0.0265
     23 H           9.3267   -0.7249    0.0000 H       1  UNL1        0.0265
     24 H           4.9966    0.7249    0.0000 H       1  UNL1        0.0265
     25 H           4.1996    0.7249    0.0000 H       1  UNL1        0.0265
     26 H          10.1928    0.7249    0.0000 H       1  UNL1        0.0266
     27 H           9.3957    0.7249    0.0000 H       1  UNL1        0.0266
     28 H           3.3335   -0.7249    0.0000 H       1  UNL1        0.0265
     29 H           4.1306   -0.7249    0.0000 H       1  UNL1        0.0265
     30 H          10.2617   -0.7249    0.0000 H       1  UNL1        0.0287
     31 H          11.0588   -0.7249    0.0000 H       1  UNL1        0.0287
     32 H           3.2646    0.7249    0.0000 H       1  UNL1        0.0263
     33 H           2.4675    0.7249    0.0000 H       1  UNL1        0.0263
     34 H          11.9248    0.7249    0.0000 H       1  UNL1        0.0557
     35 H          11.1278    0.7249    0.0000 H       1  UNL1        0.0557
     36 H           1.6900    0.2869    0.0000 H       1  UNL1        0.0230
     37 H           1.4631   -0.5600    0.0000 H       1  UNL1        0.0230
     38 H           2.3100   -0.7869    0.0000 H       1  UNL1        0.0230
     39 H          12.9292    0.0600    0.0000 H       1  UNL1        0.2094
@<TRIPOS>BOND
     1     1    12    1
     2     1    39    1
     3     2     3    1
     4     2     4    1
     5     2    14    1
     6     2    15    1
     7     3     5    1
     8     3    16    1
     9     3    17    1
    10     4     6    1
    11     4    18    1
    12     4    19    1
    13     5     7    1
    14     5    20    1
    15     5    21    1
    16     6     8    1
    17     6    22    1
    18     6    23    1
    19     7     9    1
    20     7    24    1
    21     7    25    1
    22     8    10    1
    23     8    26    1
    24     8    27    1
    25     9    11    1
    26     9    28    1
    27     9    29    1
    28    10    12    1
    29    10    30    1
    30    10    31    1
    31    11    13    1
    32    11    32    1
    33    11    33    1
    34    12    34    1
    35    12    35    1
    36    13    36    1
    37    13    37    1
    38    13    38    1
