@<TRIPOS>MOLECULE
IMPHY015447
 40 39 0 0 0
SMALL
GASTEIGER

@<TRIPOS>ATOM
      1 O           7.1962   -0.7500    0.0000 O.2     1  UNL1       -0.2974
      2 C           8.9282    0.2500    0.0000 C.3     1  UNL1       -0.0464
      3 C           5.4641    0.2500    0.0000 C.3     1  UNL1       -0.0464
      4 C           9.7942    0.7500    0.0000 C.3     1  UNL1       -0.0527
      5 C           4.5981    0.7500    0.0000 C.3     1  UNL1       -0.0527
      6 C           8.0622    0.7500    0.0000 C.3     1  UNL1        0.0058
      7 C           6.3301    0.7500    0.0000 C.3     1  UNL1        0.0058
      8 C          10.6603    0.2500    0.0000 C.3     1  UNL1       -0.0533
      9 C           3.7320    0.2500    0.0000 C.3     1  UNL1       -0.0533
     10 C           7.1962    0.2500    0.0000 C.2     1  UNL1        0.1334
     11 C          11.5263    0.7500    0.0000 C.3     1  UNL1       -0.0559
     12 C           2.8660    0.7500    0.0000 C.3     1  UNL1       -0.0559
     13 C          12.3923    0.2500    0.0000 C.3     1  UNL1       -0.0653
     14 C           2.0000    0.2500    0.0000 C.3     1  UNL1       -0.0653
     15 H           8.5297   -0.2249    0.0000 H       1  UNL1        0.0269
     16 H           9.3267   -0.2249    0.0000 H       1  UNL1        0.0269
     17 H           5.0656   -0.2249    0.0000 H       1  UNL1        0.0269
     18 H           5.8626   -0.2249    0.0000 H       1  UNL1        0.0269
     19 H          10.1928    1.2250    0.0000 H       1  UNL1        0.0265
     20 H           9.3957    1.2250    0.0000 H       1  UNL1        0.0265
     21 H           4.9966    1.2250    0.0000 H       1  UNL1        0.0265
     22 H           4.1996    1.2250    0.0000 H       1  UNL1        0.0265
     23 H           8.4607    1.2250    0.0000 H       1  UNL1        0.0342
     24 H           7.6636    1.2250    0.0000 H       1  UNL1        0.0342
     25 H           6.7287    1.2250    0.0000 H       1  UNL1        0.0342
     26 H           5.9316    1.2250    0.0000 H       1  UNL1        0.0342
     27 H          10.2617   -0.2249    0.0000 H       1  UNL1        0.0265
     28 H          11.0588   -0.2249    0.0000 H       1  UNL1        0.0265
     29 H           3.3335   -0.2249    0.0000 H       1  UNL1        0.0265
     30 H           4.1306   -0.2249    0.0000 H       1  UNL1        0.0265
     31 H          11.9248    1.2250    0.0000 H       1  UNL1        0.0263
     32 H          11.1278    1.2250    0.0000 H       1  UNL1        0.0263
     33 H           3.2646    1.2250    0.0000 H       1  UNL1        0.0263
     34 H           2.4675    1.2250    0.0000 H       1  UNL1        0.0263
     35 H          12.0823   -0.2869    0.0000 H       1  UNL1        0.0230
     36 H          12.9292   -0.0600    0.0000 H       1  UNL1        0.0230
     37 H          12.7023    0.7869    0.0000 H       1  UNL1        0.0230
     38 H           1.6900    0.7869    0.0000 H       1  UNL1        0.0230
     39 H           1.4631   -0.0600    0.0000 H       1  UNL1        0.0230
     40 H           2.3100   -0.2869    0.0000 H       1  UNL1        0.0230
@<TRIPOS>BOND
     1     1    10    2
     2     2     4    1
     3     2     6    1
     4     2    15    1
     5     2    16    1
     6     3     5    1
     7     3     7    1
     8     3    17    1
     9     3    18    1
    10     4     8    1
    11     4    19    1
    12     4    20    1
    13     5     9    1
    14     5    21    1
    15     5    22    1
    16     6    10    1
    17     6    23    1
    18     6    24    1
    19     7    10    1
    20     7    25    1
    21     7    26    1
    22     8    11    1
    23     8    27    1
    24     8    28    1
    25     9    12    1
    26     9    29    1
    27     9    30    1
    28    11    13    1
    29    11    31    1
    30    11    32    1
    31    12    14    1
    32    12    33    1
    33    12    34    1
    34    13    35    1
    35    13    36    1
    36    13    37    1
    37    14    38    1
    38    14    39    1
    39    14    40    1
