@<TRIPOS>MOLECULE
IMPHY016087
 22 22 0 0 0
SMALL
GASTEIGER

@<TRIPOS>ATOM
      1 O           4.5981    1.6550    0.0000 O.3     1  UNL1       -0.5057
      2 O           6.3301   -1.3450    0.0000 O.3     1  UNL1       -0.5064
      3 O           2.8660    1.6550    0.0000 O.2     1  UNL1       -0.2922
      4 C           5.4641    0.1550    0.0000 C.ar    1  UNL1        0.0330
      5 C           3.7320    0.1550    0.0000 C.ar    1  UNL1        0.0590
      6 C           4.5981    0.6550    0.0000 C.ar    1  UNL1        0.1337
      7 C           5.4641   -0.8450    0.0000 C.ar    1  UNL1        0.1233
      8 C           3.7320   -0.8450    0.0000 C.ar    1  UNL1       -0.0443
      9 C           4.5981   -1.3450    0.0000 C.ar    1  UNL1       -0.0190
     10 C           6.3301    0.6550    0.0000 C.3     1  UNL1       -0.0327
     11 C           2.8660    0.6550    0.0000 C.2     1  UNL1        0.1636
     12 C           2.0000    0.1550    0.0000 C.3     1  UNL1       -0.0013
     13 H           3.1951   -1.1550    0.0000 H       1  UNL1        0.0627
     14 H           4.5981   -1.9650    0.0000 H       1  UNL1        0.0654
     15 H           6.6401    0.1181    0.0000 H       1  UNL1        0.0280
     16 H           6.8671    0.9650    0.0000 H       1  UNL1        0.0280
     17 H           6.0201    1.1919    0.0000 H       1  UNL1        0.0280
     18 H           1.6900    0.6919    0.0000 H       1  UNL1        0.0309
     19 H           1.4631   -0.1550    0.0000 H       1  UNL1        0.0309
     20 H           2.3100   -0.3819    0.0000 H       1  UNL1        0.0309
     21 H           5.1350    1.9650    0.0000 H       1  UNL1        0.2922
     22 H           6.3301   -1.9650    0.0000 H       1  UNL1        0.2921
@<TRIPOS>BOND
     1     1     6    1
     2     1    21    1
     3     2     7    1
     4     2    22    1
     5     3    11    2
     6     4     6   ar
     7     4     7   ar
     8     4    10    1
     9     5     6   ar
    10     5     8   ar
    11     5    11    1
    12     7     9   ar
    13     8     9   ar
    14     8    13    1
    15     9    14    1
    16    10    15    1
    17    10    16    1
    18    10    17    1
    19    11    12    1
    20    12    18    1
    21    12    19    1
    22    12    20    1
