@<TRIPOS>MOLECULE
IMPHY009366
 40 42 0 0 0
SMALL
GASTEIGER

@<TRIPOS>ATOM
      1 O           2.6145   -1.7629    0.0000 O.3     1  UNL1       -0.3907
      2 C           5.8021   -0.8169    0.0000 C.3     1  UNL1        0.0003
      3 C           5.9090    0.3599    0.0000 C.3     1  UNL1       -0.0222
      4 C           5.3021    1.3738    0.0000 C.3     1  UNL1       -0.0314
      5 C           6.7031   -0.3830    0.0000 C.3     1  UNL1       -0.0340
      6 C           4.9012   -0.3830    0.0000 C.2     1  UNL1       -0.0609
      7 C           4.6786    0.5920    0.0000 C.3     1  UNL1       -0.0275
      8 C           5.6661   -1.8016    0.0000 C.3     1  UNL1       -0.0391
      9 C           6.3021    1.3738    0.0000 C.3     1  UNL1       -0.0491
     10 C           6.9256    0.5920    0.0000 C.3     1  UNL1       -0.0494
     11 C           4.2161   -1.1033    0.0000 C.2     1  UNL1       -0.0447
     12 C           4.6879   -1.9782    0.0000 C.3     1  UNL1       -0.0285
     13 C           6.8045    1.0814    0.0000 C.3     1  UNL1       -0.0587
     14 C           7.0289    0.0984    0.0000 C.3     1  UNL1       -0.0587
     15 C           7.4849   -1.0065    0.0000 C.3     1  UNL1       -0.0616
     16 C           3.2249   -0.9708    0.0000 C.3     1  UNL1        0.0656
     17 H           5.1130    2.2025    0.0000 H       1  UNL1        0.0309
     18 H           6.6337   -0.9991    0.0000 H       1  UNL1        0.0307
     19 H           4.2921    1.0767    0.0000 H       1  UNL1        0.0313
     20 H           4.1200    0.3229    0.0000 H       1  UNL1        0.0313
     21 H           5.7116   -2.4199    0.0000 H       1  UNL1        0.0277
     22 H           6.2858   -1.8214    0.0000 H       1  UNL1        0.0277
     23 H           6.8607    1.6428    0.0000 H       1  UNL1        0.0268
     24 H           6.1642    1.9782    0.0000 H       1  UNL1        0.0268
     25 H           7.4842    0.3229    0.0000 H       1  UNL1        0.0268
     26 H           7.3122    1.0767    0.0000 H       1  UNL1        0.0268
     27 H           4.1143   -2.2135    0.0000 H       1  UNL1        0.0311
     28 H           4.8616   -2.5734    0.0000 H       1  UNL1        0.0311
     29 H           7.1935    0.5986    0.0000 H       1  UNL1        0.0235
     30 H           7.2873    1.4704    0.0000 H       1  UNL1        0.0235
     31 H           6.4155    1.5642    0.0000 H       1  UNL1        0.0235
     32 H           6.8879   -0.5053    0.0000 H       1  UNL1        0.0235
     33 H           7.6326   -0.0425    0.0000 H       1  UNL1        0.0235
     34 H           7.1698    0.7022    0.0000 H       1  UNL1        0.0235
     35 H           7.0984   -1.4912    0.0000 H       1  UNL1        0.0233
     36 H           7.9697   -1.3930    0.0000 H       1  UNL1        0.0233
     37 H           7.8715   -0.5217    0.0000 H       1  UNL1        0.0233
     38 H           3.4125   -0.3798    0.0000 H       1  UNL1        0.0604
     39 H           2.6755   -0.6834    0.0000 H       1  UNL1        0.0604
     40 H           2.0000   -1.6807    0.0000 H       1  UNL1        0.2098
@<TRIPOS>BOND
     1     1    16    1
     2     1    40    1
     3     2     3    1
     4     2     5    1
     5     2     6    1
     6     2     8    1
     7     3     4    1
     8     3    13    1
     9     3    14    1
    10     4     7    1
    11     4     9    1
    12     4    17    1
    13     5    10    1
    14     5    15    1
    15     5    18    1
    16     6     7    1
    17     6    11    2
    18     7    19    1
    19     7    20    1
    20     8    12    1
    21     8    21    1
    22     8    22    1
    23     9    10    1
    24     9    23    1
    25     9    24    1
    26    10    25    1
    27    10    26    1
    28    11    12    1
    29    11    16    1
    30    12    27    1
    31    12    28    1
    32    13    29    1
    33    13    30    1
    34    13    31    1
    35    14    32    1
    36    14    33    1
    37    14    34    1
    38    15    35    1
    39    15    36    1
    40    15    37    1
    41    16    38    1
    42    16    39    1
