@<TRIPOS>MOLECULE
IMPHY008485
 58 61 0 0 0
SMALL
GASTEIGER

@<TRIPOS>ATOM
      1 O           4.6557    0.1619    0.0000 O.3     1  UNL1       -0.3712
      2 O           7.7244    0.1619    0.0000 O.3     1  UNL1       -0.3712
      3 O           2.6691    3.2888    0.0000 O.3     1  UNL1       -0.4913
      4 O           5.9637    4.3593    0.0000 O.3     1  UNL1       -0.4913
      5 O           6.4264   -4.0325    0.0000 O.3     1  UNL1       -0.4914
      6 O           4.0074    4.7751    0.0000 O.3     1  UNL1       -0.4885
      7 O           8.3834   -4.4449    0.0000 O.3     1  UNL1       -0.4915
      8 C           6.1945    0.6619    0.0000 C.3     1  UNL1        0.0205
      9 C           6.1945   -0.3381    0.0000 C.3     1  UNL1        0.0205
     10 C           5.2435    0.9709    0.0000 C.3     1  UNL1        0.0892
     11 C           7.1407   -0.6429    0.0000 C.3     1  UNL1        0.0891
     12 C           5.2435   -0.6471    0.0000 C.3     1  UNL1        0.0544
     13 C           7.1407    0.9666    0.0000 C.3     1  UNL1        0.0544
     14 C           4.9344    1.9219    0.0000 C.ar    1  UNL1       -0.0114
     15 C           7.4514   -1.5934    0.0000 C.ar    1  UNL1       -0.0149
     16 C           5.6036    2.6651    0.0000 C.ar    1  UNL1       -0.0104
     17 C           3.9563    2.1299    0.0000 C.ar    1  UNL1       -0.0104
     18 C           6.7836   -2.3377    0.0000 C.ar    1  UNL1       -0.0107
     19 C           8.4299   -1.7996    0.0000 C.ar    1  UNL1       -0.0524
     20 C           3.6473    3.0809    0.0000 C.ar    1  UNL1        0.1655
     21 C           5.2946    3.6162    0.0000 C.ar    1  UNL1        0.1655
     22 C           7.0942   -3.2882    0.0000 C.ar    1  UNL1        0.1618
     23 C           8.7406   -2.7501    0.0000 C.ar    1  UNL1       -0.0160
     24 C           4.3164    3.8241    0.0000 C.ar    1  UNL1        0.2035
     25 C           8.0727   -3.4944    0.0000 C.ar    1  UNL1        0.1615
     26 C           2.0000    2.5457    0.0000 C.3     1  UNL1        0.0790
     27 C           6.9418    4.1514    0.0000 C.3     1  UNL1        0.0790
     28 C           6.7370   -4.9830    0.0000 C.3     1  UNL1        0.0790
     29 C           3.0292    4.9830    0.0000 C.3     1  UNL1        0.0791
     30 C           9.3619   -4.6512    0.0000 C.3     1  UNL1        0.0790
     31 H           6.1956    1.5119    0.0000 H       1  UNL1        0.0356
     32 H           6.1956   -1.1881    0.0000 H       1  UNL1        0.0356
     33 H           4.6311    1.0679    0.0000 H       1  UNL1        0.0650
     34 H           7.7532   -0.7391    0.0000 H       1  UNL1        0.0650
     35 H           4.7065   -0.9571    0.0000 H       1  UNL1        0.0564
     36 H           5.4956   -1.2135    0.0000 H       1  UNL1        0.0564
     37 H           7.6781    1.2758    0.0000 H       1  UNL1        0.0564
     38 H           6.8897    1.5335    0.0000 H       1  UNL1        0.0564
     39 H           6.2100    2.5362    0.0000 H       1  UNL1        0.0659
     40 H           3.5414    1.6691    0.0000 H       1  UNL1        0.0659
     41 H           6.1769   -2.2098    0.0000 H       1  UNL1        0.0659
     42 H           8.8440   -1.3381    0.0000 H       1  UNL1        0.0622
     43 H           9.3472   -2.8780    0.0000 H       1  UNL1        0.0655
     44 H           1.5392    2.9605    0.0000 H       1  UNL1        0.0660
     45 H           1.5851    2.0849    0.0000 H       1  UNL1        0.0660
     46 H           2.4608    2.1308    0.0000 H       1  UNL1        0.0660
     47 H           6.8129    3.5449    0.0000 H       1  UNL1        0.0660
     48 H           7.5483    4.0225    0.0000 H       1  UNL1        0.0660
     49 H           7.0707    4.7578    0.0000 H       1  UNL1        0.0660
     50 H           6.1477   -5.1756    0.0000 H       1  UNL1        0.0660
     51 H           6.9296   -5.5724    0.0000 H       1  UNL1        0.0660
     52 H           7.3264   -4.7904    0.0000 H       1  UNL1        0.0660
     53 H           3.1582    5.5895    0.0000 H       1  UNL1        0.0660
     54 H           2.4228    5.1119    0.0000 H       1  UNL1        0.0660
     55 H           2.9003    4.3766    0.0000 H       1  UNL1        0.0660
     56 H           9.2340   -5.2578    0.0000 H       1  UNL1        0.0660
     57 H           9.9686   -4.7790    0.0000 H       1  UNL1        0.0660
     58 H           9.4898   -4.0445    0.0000 H       1  UNL1        0.0660
@<TRIPOS>BOND
     1     1    10    1
     2     1    12    1
     3     2    11    1
     4     2    13    1
     5     3    20    1
     6     3    26    1
     7     4    21    1
     8     4    27    1
     9     5    22    1
    10     5    28    1
    11     6    24    1
    12     6    29    1
    13     7    25    1
    14     7    30    1
    15     8     9    1
    16     8    10    1
    17     8    13    1
    18     8    31    1
    19     9    11    1
    20     9    12    1
    21     9    32    1
    22    10    14    1
    23    10    33    1
    24    11    15    1
    25    11    34    1
    26    12    35    1
    27    12    36    1
    28    13    37    1
    29    13    38    1
    30    14    16   ar
    31    14    17   ar
    32    15    18   ar
    33    15    19   ar
    34    16    21   ar
    35    16    39    1
    36    17    20   ar
    37    17    40    1
    38    18    22   ar
    39    18    41    1
    40    19    23   ar
    41    19    42    1
    42    20    24   ar
    43    21    24   ar
    44    22    25   ar
    45    23    25   ar
    46    23    43    1
    47    26    44    1
    48    26    45    1
    49    26    46    1
    50    27    47    1
    51    27    48    1
    52    27    49    1
    53    28    50    1
    54    28    51    1
    55    28    52    1
    56    29    53    1
    57    29    54    1
    58    29    55    1
    59    30    56    1
    60    30    57    1
    61    30    58    1
