@<TRIPOS>MOLECULE
IMPHY000089
 60 63 0 0 0
SMALL
GASTEIGER

@<TRIPOS>ATOM
      1 O          10.3312   -0.1550    0.0000 O.3     1  UNL1       -0.3713
      2 O           8.5991    2.8450    0.0000 O.3     1  UNL1       -0.3868
      3 O           9.4651   -4.6550    0.0000 O.3     1  UNL1       -0.5068
      4 O          12.9292    4.3450    0.0000 O.3     1  UNL1       -0.5068
      5 O           2.5369    1.3450    0.0000 O.3     1  UNL1       -0.5068
      6 C           8.5991   -0.1550    0.0000 C.3     1  UNL1       -0.0067
      7 C           9.4651    1.3450    0.0000 C.3     1  UNL1        0.0130
      8 C           8.5991    0.8450    0.0000 C.3     1  UNL1       -0.0397
      9 C           9.4651   -0.6550    0.0000 C.3     1  UNL1        0.0867
     10 C          10.3312    0.8450    0.0000 C.3     1  UNL1        0.0539
     11 C           9.4651    2.3450    0.0000 C.3     1  UNL1        0.0851
     12 C           7.7331   -0.6550    0.0000 C.3     1  UNL1       -0.0289
     13 C           9.4651   -1.6550    0.0000 C.ar    1  UNL1       -0.0184
     14 C          10.3312    2.8450    0.0000 C.ar    1  UNL1       -0.0186
     15 C           6.8671   -0.1550    0.0000 C.2     1  UNL1       -0.0831
     16 C           8.5991   -2.1550    0.0000 C.ar    1  UNL1       -0.0527
     17 C          10.3312   -2.1550    0.0000 C.ar    1  UNL1       -0.0527
     18 C          11.1972    2.3450    0.0000 C.ar    1  UNL1       -0.0527
     19 C          10.3312    3.8450    0.0000 C.ar    1  UNL1       -0.0527
     20 C           6.0010   -0.6550    0.0000 C.2     1  UNL1       -0.0585
     21 C           8.5991   -3.1550    0.0000 C.ar    1  UNL1       -0.0198
     22 C          10.3312   -3.1550    0.0000 C.ar    1  UNL1       -0.0198
     23 C           9.4651   -3.6550    0.0000 C.ar    1  UNL1        0.1169
     24 C          12.0632    2.8450    0.0000 C.ar    1  UNL1       -0.0198
     25 C          11.1972    4.3450    0.0000 C.ar    1  UNL1       -0.0198
     26 C          12.0632    3.8450    0.0000 C.ar    1  UNL1        0.1169
     27 C           5.1350   -0.1550    0.0000 C.ar    1  UNL1       -0.0251
     28 C           5.1350    0.8450    0.0000 C.ar    1  UNL1       -0.0512
     29 C           4.2690   -0.6550    0.0000 C.ar    1  UNL1       -0.0512
     30 C           4.2690    1.3450    0.0000 C.ar    1  UNL1       -0.0196
     31 C           3.4030   -0.1550    0.0000 C.ar    1  UNL1       -0.0196
     32 C           3.4030    0.8450    0.0000 C.ar    1  UNL1        0.1169
     33 H           8.5991   -0.7750    0.0000 H       1  UNL1        0.0332
     34 H           8.9282    1.6550    0.0000 H       1  UNL1        0.0351
     35 H           8.3871    1.4276    0.0000 H       1  UNL1        0.0273
     36 H           7.9885    0.7373    0.0000 H       1  UNL1        0.0273
     37 H          10.0021   -0.9650    0.0000 H       1  UNL1        0.0649
     38 H          10.9417    0.7373    0.0000 H       1  UNL1        0.0564
     39 H          10.5432    1.4276    0.0000 H       1  UNL1        0.0564
     40 H           9.4651    3.1950    0.0000 H       1  UNL1        0.0647
     41 H           7.3346   -1.1300    0.0000 H       1  UNL1        0.0311
     42 H           8.1316   -1.1300    0.0000 H       1  UNL1        0.0311
     43 H           6.8671    0.4650    0.0000 H       1  UNL1        0.0572
     44 H           8.0622   -1.8450    0.0000 H       1  UNL1        0.0622
     45 H          10.8681   -1.8450    0.0000 H       1  UNL1        0.0622
     46 H           8.5991    3.4650    0.0000 H       1  UNL1        0.2102
     47 H          11.1972    1.7250    0.0000 H       1  UNL1        0.0622
     48 H           9.7942    4.1550    0.0000 H       1  UNL1        0.0622
     49 H           6.0010   -1.2750    0.0000 H       1  UNL1        0.0620
     50 H           8.0622   -3.4650    0.0000 H       1  UNL1        0.0654
     51 H          10.8681   -3.4650    0.0000 H       1  UNL1        0.0654
     52 H          12.6002    2.5350    0.0000 H       1  UNL1        0.0654
     53 H          11.1972    4.9650    0.0000 H       1  UNL1        0.0654
     54 H           5.6720    1.1550    0.0000 H       1  UNL1        0.0625
     55 H           4.2690   -1.2750    0.0000 H       1  UNL1        0.0625
     56 H          10.0021   -4.9650    0.0000 H       1  UNL1        0.2921
     57 H          12.9292    4.9650    0.0000 H       1  UNL1        0.2921
     58 H           4.2690    1.9650    0.0000 H       1  UNL1        0.0654
     59 H           2.8660   -0.4650    0.0000 H       1  UNL1        0.0654
     60 H           2.0000    1.0350    0.0000 H       1  UNL1        0.2921
@<TRIPOS>BOND
     1     1     9    1
     2     1    10    1
     3     2    11    1
     4     2    46    1
     5     3    23    1
     6     3    56    1
     7     4    26    1
     8     4    57    1
     9     5    32    1
    10     5    60    1
    11     6     8    1
    12     6     9    1
    13     6    12    1
    14     6    33    1
    15     7     8    1
    16     7    10    1
    17     7    11    1
    18     7    34    1
    19     8    35    1
    20     8    36    1
    21     9    13    1
    22     9    37    1
    23    10    38    1
    24    10    39    1
    25    11    14    1
    26    11    40    1
    27    12    15    1
    28    12    41    1
    29    12    42    1
    30    13    16   ar
    31    13    17   ar
    32    14    18   ar
    33    14    19   ar
    34    15    20    2
    35    15    43    1
    36    16    21   ar
    37    16    44    1
    38    17    22   ar
    39    17    45    1
    40    18    24   ar
    41    18    47    1
    42    19    25   ar
    43    19    48    1
    44    20    27    1
    45    20    49    1
    46    21    23   ar
    47    21    50    1
    48    22    23   ar
    49    22    51    1
    50    24    26   ar
    51    24    52    1
    52    25    26   ar
    53    25    53    1
    54    27    28   ar
    55    27    29   ar
    56    28    30   ar
    57    28    54    1
    58    29    31   ar
    59    29    55    1
    60    30    32   ar
    61    30    58    1
    62    31    32   ar
    63    31    59    1
