@<TRIPOS>MOLECULE
IMPHY011413
 74 77 0 0 0
SMALL
GASTEIGER

@<TRIPOS>ATOM
      1 O           5.5010   -3.8226    0.0000 O.3     1  UNL1       -0.4641
      2 O           7.0888   -4.6316    0.0000 O.2     1  UNL1       -0.2505
      3 O           6.0010    1.7162    0.0000 O.3     1  UNL1       -0.3865
      4 O           2.5369   -1.2838    0.0000 O.3     1  UNL1       -0.4914
      5 O           2.5369    0.7162    0.0000 O.3     1  UNL1       -0.5031
      6 O           3.4030    3.2162    0.0000 O.3     1  UNL1       -0.3943
      7 O           8.8316   -5.8571    0.0000 O.3     1  UNL1       -0.4915
      8 O          10.7337   -5.2391    0.0000 O.3     1  UNL1       -0.5033
      9 O           6.8671    5.2162    0.0000 O.3     1  UNL1       -0.4914
     10 O           5.1350    6.2162    0.0000 O.3     1  UNL1       -0.5033
     11 C           6.0010   -2.2838    0.0000 C.3     1  UNL1        0.0105
     12 C           6.8100   -2.8716    0.0000 C.3     1  UNL1        0.0666
     13 C           6.0010   -1.2838    0.0000 C.3     1  UNL1       -0.0209
     14 C           5.1920   -2.8716    0.0000 C.3     1  UNL1        0.0963
     15 C           7.7611   -2.5625    0.0000 C.3     1  UNL1       -0.0143
     16 C           6.5010   -3.8226    0.0000 C.2     1  UNL1        0.3109
     17 C           5.1350   -0.7838    0.0000 C.ar    1  UNL1       -0.0430
     18 C           8.5043   -3.2317    0.0000 C.ar    1  UNL1       -0.0429
     19 C           4.2690    1.7162    0.0000 C.3     1  UNL1        0.0409
     20 C           5.1350    0.2162    0.0000 C.ar    1  UNL1       -0.0512
     21 C           4.2690    0.7162    0.0000 C.ar    1  UNL1        0.0060
     22 C           4.2690   -1.2838    0.0000 C.ar    1  UNL1       -0.0131
     23 C           5.1350    2.2162    0.0000 C.3     1  UNL1        0.0893
     24 C           3.4030    0.2162    0.0000 C.ar    1  UNL1        0.1621
     25 C           3.4030   -0.7838    0.0000 C.ar    1  UNL1        0.1618
     26 C           3.4030    2.2162    0.0000 C.3     1  UNL1        0.0538
     27 C           8.2963   -4.2098    0.0000 C.ar    1  UNL1       -0.0131
     28 C           9.4553   -2.9226    0.0000 C.ar    1  UNL1       -0.0549
     29 C           5.1350    3.2162    0.0000 C.ar    1  UNL1       -0.0148
     30 C           9.0395   -4.8790    0.0000 C.ar    1  UNL1        0.1615
     31 C          10.1985   -3.5918    0.0000 C.ar    1  UNL1       -0.0163
     32 C           9.9906   -4.5699    0.0000 C.ar    1  UNL1        0.1585
     33 C           6.0010    3.7162    0.0000 C.ar    1  UNL1       -0.0107
     34 C           4.2690    3.7162    0.0000 C.ar    1  UNL1       -0.0524
     35 C           6.0010    4.7162    0.0000 C.ar    1  UNL1        0.1616
     36 C           4.2690    4.7162    0.0000 C.ar    1  UNL1       -0.0162
     37 C           2.5369   -2.2838    0.0000 C.3     1  UNL1        0.0790
     38 C           5.1350    5.2162    0.0000 C.ar    1  UNL1        0.1585
     39 C           9.5747   -6.5262    0.0000 C.3     1  UNL1        0.0790
     40 C           6.8671    6.2162    0.0000 C.3     1  UNL1        0.0790
     41 H           6.5535   -2.0023    0.0000 H       1  UNL1        0.0345
     42 H           7.2485   -3.3100    0.0000 H       1  UNL1        0.0420
     43 H           6.6116   -1.3914    0.0000 H       1  UNL1        0.0317
     44 H           6.2131   -0.7012    0.0000 H       1  UNL1        0.0317
     45 H           4.8820   -2.3346    0.0000 H       1  UNL1        0.0700
     46 H           4.6256   -3.1237    0.0000 H       1  UNL1        0.0700
     47 H           8.2497   -2.1808    0.0000 H       1  UNL1        0.0321
     48 H           7.4700   -2.0151    0.0000 H       1  UNL1        0.0321
     49 H           4.2690    2.3362    0.0000 H       1  UNL1        0.0401
     50 H           5.6720    0.5262    0.0000 H       1  UNL1        0.0624
     51 H           4.2690   -1.9038    0.0000 H       1  UNL1        0.0658
     52 H           5.1350    1.5962    0.0000 H       1  UNL1        0.0650
     53 H           2.7924    2.3239    0.0000 H       1  UNL1        0.0564
     54 H           3.1909    1.6336    0.0000 H       1  UNL1        0.0564
     55 H           7.7067   -4.4014    0.0000 H       1  UNL1        0.0658
     56 H           9.5842   -2.3162    0.0000 H       1  UNL1        0.0621
     57 H          10.7881   -3.4002    0.0000 H       1  UNL1        0.0655
     58 H           6.5380    2.0262    0.0000 H       1  UNL1        0.2103
     59 H           6.5380    3.4062    0.0000 H       1  UNL1        0.0659
     60 H           2.0000    0.4062    0.0000 H       1  UNL1        0.2923
     61 H           3.7320    3.4062    0.0000 H       1  UNL1        0.0622
     62 H           2.8660    3.5262    0.0000 H       1  UNL1        0.2094
     63 H           3.7320    5.0262    0.0000 H       1  UNL1        0.0655
     64 H           1.9169   -2.2838    0.0000 H       1  UNL1        0.0660
     65 H           2.5369   -2.9038    0.0000 H       1  UNL1        0.0660
     66 H           3.1569   -2.2838    0.0000 H       1  UNL1        0.0660
     67 H          11.3233   -5.0475    0.0000 H       1  UNL1        0.2923
     68 H           9.1599   -6.9870    0.0000 H       1  UNL1        0.0660
     69 H          10.0355   -6.9411    0.0000 H       1  UNL1        0.0660
     70 H           9.9896   -6.0655    0.0000 H       1  UNL1        0.0660
     71 H           4.5981    6.5262    0.0000 H       1  UNL1        0.2923
     72 H           7.4871    6.2162    0.0000 H       1  UNL1        0.0660
     73 H           6.8671    6.8362    0.0000 H       1  UNL1        0.0660
     74 H           6.2471    6.2162    0.0000 H       1  UNL1        0.0660
@<TRIPOS>BOND
     1     1    14    1
     2     1    16    1
     3     2    16    2
     4     3    23    1
     5     3    58    1
     6     4    25    1
     7     4    37    1
     8     5    24    1
     9     5    60    1
    10     6    26    1
    11     6    62    1
    12     7    30    1
    13     7    39    1
    14     8    32    1
    15     8    67    1
    16     9    35    1
    17     9    40    1
    18    10    38    1
    19    10    71    1
    20    11    12    1
    21    11    13    1
    22    11    14    1
    23    11    41    1
    24    12    15    1
    25    12    16    1
    26    12    42    1
    27    13    17    1
    28    13    43    1
    29    13    44    1
    30    14    45    1
    31    14    46    1
    32    15    18    1
    33    15    47    1
    34    15    48    1
    35    17    20   ar
    36    17    22   ar
    37    18    27   ar
    38    18    28   ar
    39    19    21    1
    40    19    23    1
    41    19    26    1
    42    19    49    1
    43    20    21   ar
    44    20    50    1
    45    21    24   ar
    46    22    25   ar
    47    22    51    1
    48    23    29    1
    49    23    52    1
    50    24    25   ar
    51    26    53    1
    52    26    54    1
    53    27    30   ar
    54    27    55    1
    55    28    31   ar
    56    28    56    1
    57    29    33   ar
    58    29    34   ar
    59    30    32   ar
    60    31    32   ar
    61    31    57    1
    62    33    35   ar
    63    33    59    1
    64    34    36   ar
    65    34    61    1
    66    35    38   ar
    67    36    38   ar
    68    36    63    1
    69    37    64    1
    70    37    65    1
    71    37    66    1
    72    39    68    1
    73    39    69    1
    74    39    70    1
    75    40    72    1
    76    40    73    1
    77    40    74    1
