@<TRIPOS>MOLECULE
IMPHY015934
 38 38 0 0 0
SMALL
GASTEIGER

@<TRIPOS>ATOM
      1 O           2.8090    1.1065    0.0000 O.2     1  UNL1       -0.4672
      2 C           5.9360   -0.8800    0.0000 C.3     1  UNL1       -0.0286
      3 C           5.7281    0.0981    0.0000 C.2     1  UNL1       -0.0758
      4 C           6.8870   -1.1890    0.0000 C.3     1  UNL1       -0.0308
      5 C           4.5691    1.3853    0.0000 C.3     1  UNL1        0.0242
      6 C           4.7770    0.4071    0.0000 C.2     1  UNL1       -0.0778
      7 C           3.6180    1.6943    0.0000 C.ar    1  UNL1        0.1114
      8 C           7.0949   -2.1672    0.0000 C.2     1  UNL1       -0.0850
      9 C           6.4712    0.7672    0.0000 C.3     1  UNL1       -0.0438
     10 C           3.3090    2.6454    0.0000 C.ar    1  UNL1       -0.0093
     11 C           8.0460   -2.4762    0.0000 C.2     1  UNL1       -0.0796
     12 C           2.3090    2.6454    0.0000 C.ar    1  UNL1       -0.0207
     13 C           3.8968    3.4544    0.0000 C.3     1  UNL1       -0.0364
     14 C           2.0000    1.6943    0.0000 C.ar    1  UNL1        0.0923
     15 C           8.2539   -3.4544    0.0000 C.3     1  UNL1       -0.0440
     16 C           8.7891   -1.8071    0.0000 C.3     1  UNL1       -0.0440
     17 H           5.3164   -0.9017    0.0000 H       1  UNL1        0.0313
     18 H           5.8497   -1.4940    0.0000 H       1  UNL1        0.0313
     19 H           7.5066   -1.1674    0.0000 H       1  UNL1        0.0310
     20 H           6.9733   -0.5751    0.0000 H       1  UNL1        0.0310
     21 H           5.1887    1.4069    0.0000 H       1  UNL1        0.0386
     22 H           4.6554    1.9992    0.0000 H       1  UNL1        0.0386
     23 H           4.3162   -0.0077    0.0000 H       1  UNL1        0.0576
     24 H           6.6342   -2.5821    0.0000 H       1  UNL1        0.0572
     25 H           6.8861    0.3065    0.0000 H       1  UNL1        0.0274
     26 H           6.9320    1.1821    0.0000 H       1  UNL1        0.0274
     27 H           6.0563    1.2280    0.0000 H       1  UNL1        0.0274
     28 H           1.9446    3.1469    0.0000 H       1  UNL1        0.0652
     29 H           4.3984    3.0899    0.0000 H       1  UNL1        0.0279
     30 H           4.2612    3.9560    0.0000 H       1  UNL1        0.0279
     31 H           3.3952    3.8188    0.0000 H       1  UNL1        0.0279
     32 H           1.4103    1.5027    0.0000 H       1  UNL1        0.1029
     33 H           7.6475   -3.5833    0.0000 H       1  UNL1        0.0274
     34 H           8.3828   -4.0608    0.0000 H       1  UNL1        0.0274
     35 H           8.8604   -3.3255    0.0000 H       1  UNL1        0.0274
     36 H           9.2040   -2.2678    0.0000 H       1  UNL1        0.0274
     37 H           9.2499   -1.3922    0.0000 H       1  UNL1        0.0274
     38 H           8.3743   -1.3463    0.0000 H       1  UNL1        0.0274
@<TRIPOS>BOND
     1     1     7   ar
     2     1    14   ar
     3     2     3    1
     4     2     4    1
     5     2    17    1
     6     2    18    1
     7     3     6    2
     8     3     9    1
     9     4     8    1
    10     4    19    1
    11     4    20    1
    12     5     6    1
    13     5     7    1
    14     5    21    1
    15     5    22    1
    16     6    23    1
    17     7    10   ar
    18     8    11    2
    19     8    24    1
    20     9    25    1
    21     9    26    1
    22     9    27    1
    23    10    12   ar
    24    10    13    1
    25    11    15    1
    26    11    16    1
    27    12    14   ar
    28    12    28    1
    29    13    29    1
    30    13    30    1
    31    13    31    1
    32    14    32    1
    33    15    33    1
    34    15    34    1
    35    15    35    1
    36    16    36    1
    37    16    37    1
    38    16    38    1
