@<TRIPOS>MOLECULE
IMPHY011246
 45 50 0 0 0
SMALL
GASTEIGER

@<TRIPOS>ATOM
      1 O           5.0190   -1.5760    0.0000 O.3     1  UNL1       -0.3536
      2 O           6.2785    0.8176    0.0000 O.3     1  UNL1       -0.4589
      3 O           2.6568    2.9182    0.0000 O.3     1  UNL1       -0.4611
      4 O           6.8378   -0.7808    0.0000 O.2     1  UNL1       -0.2475
      5 O           3.7908    4.2570    0.0000 O.2     1  UNL1       -0.2505
      6 O           3.3897   -4.2570    0.0000 O.2     1  UNL1       -0.4707
      7 C           4.2541   -0.1573    0.0000 C.3     1  UNL1        0.0136
      8 C           4.0316    0.8176    0.0000 C.3     1  UNL1       -0.0221
      9 C           4.6550    1.5994    0.0000 C.3     1  UNL1        0.0128
     10 C           5.1550   -0.5912    0.0000 C.3     1  UNL1        0.1751
     11 C           5.6550    1.5994    0.0000 C.3     1  UNL1        0.1102
     12 C           5.0482    0.5855    0.0000 C.3     1  UNL1        0.0248
     13 C           4.2895    2.5748    0.0000 C.3     1  UNL1        0.0662
     14 C           2.9993    0.9569    0.0000 C.3     1  UNL1       -0.0118
     15 C           3.5690   -0.8776    0.0000 C.3     1  UNL1       -0.0134
     16 C           2.6113    1.9236    0.0000 C.3     1  UNL1        0.1041
     17 C           3.2607    2.7380    0.0000 C.3     1  UNL1       -0.0024
     18 C           4.0408   -1.7526    0.0000 C.3     1  UNL1        0.0886
     19 C           3.2569   -0.2320    0.0000 C.3     1  UNL1       -0.0560
     20 C           6.0560   -0.1573    0.0000 C.2     1  UNL1        0.3404
     21 C           3.5850    3.2784    0.0000 C.2     1  UNL1        0.3110
     22 C           3.6069   -2.6536    0.0000 C.ar    1  UNL1        0.0188
     23 C           2.6230   -2.8321    0.0000 C.ar    1  UNL1       -0.0183
     24 C           4.0808   -3.5342    0.0000 C.ar    1  UNL1        0.0973
     25 C           2.4888   -3.8231    0.0000 C.ar    1  UNL1        0.0920
     26 H           3.5016    0.1530    0.0000 H       1  UNL1        0.0312
     27 H           5.1850    2.2640    0.0000 H       1  UNL1        0.0347
     28 H           5.8442    2.4281    0.0000 H       1  UNL1        0.0738
     29 H           4.6404    1.0526    0.0000 H       1  UNL1        0.0335
     30 H           4.4782    0.3417    0.0000 H       1  UNL1        0.0335
     31 H           5.0831    2.8792    0.0000 H       1  UNL1        0.0419
     32 H           2.3929    0.8278    0.0000 H       1  UNL1        0.0304
     33 H           3.0227    0.3374    0.0000 H       1  UNL1        0.0304
     34 H           3.1671   -0.4055    0.0000 H       1  UNL1        0.0300
     35 H           3.0572   -1.2276    0.0000 H       1  UNL1        0.0300
     36 H           1.7732    1.7815    0.0000 H       1  UNL1        0.0734
     37 H           3.4612    3.3247    0.0000 H       1  UNL1        0.0309
     38 H           2.7170    3.0359    0.0000 H       1  UNL1        0.0309
     39 H           4.4162   -2.2461    0.0000 H       1  UNL1        0.0648
     40 H           3.2106    0.3863    0.0000 H       1  UNL1        0.0236
     41 H           2.6386   -0.2783    0.0000 H       1  UNL1        0.0236
     42 H           3.3032   -0.8503    0.0000 H       1  UNL1        0.0236
     43 H           2.1748   -2.4037    0.0000 H       1  UNL1        0.0652
     44 H           4.6952   -3.6174    0.0000 H       1  UNL1        0.1033
     45 H           1.9428   -4.1169    0.0000 H       1  UNL1        0.1029
@<TRIPOS>BOND
     1    10     1    1
     2     1    18    1
     3     2    11    1
     4     2    20    1
     5     3    16    1
     6     3    21    1
     7     4    20    2
     8     5    21    2
     9     6    24   ar
    10     6    25   ar
    11     7     8    1
    12     7    10    1
    13     7    15    1
    14     7    19    1
    15     8     9    1
    16     8    14    1
    17     8    26    1
    18     9    11    1
    19     9    13    1
    20     9    27    1
    21    10    12    1
    22    10    20    1
    23    11    12    1
    24    11    28    1
    25    12    29    1
    26    12    30    1
    27    13    17    1
    28    13    21    1
    29    13    31    1
    30    14    16    1
    31    14    32    1
    32    14    33    1
    33    15    18    1
    34    15    34    1
    35    15    35    1
    36    16    17    1
    37    16    36    1
    38    17    37    1
    39    17    38    1
    40    18    22    1
    41    18    39    1
    42    19    40    1
    43    19    41    1
    44    19    42    1
    45    22    23   ar
    46    22    24   ar
    47    23    25   ar
    48    23    43    1
    49    24    44    1
    50    25    45    1
