@<TRIPOS>MOLECULE
IMPHY005193
 62 66 0 0 0
SMALL
GASTEIGER

@<TRIPOS>ATOM
      1 O           7.9288   -1.6474    0.0000 O.3     1  UNL1       -0.3873
      2 O           5.2710   -3.1958    0.0000 O.3     1  UNL1       -0.3879
      3 O           5.3307    0.8526    0.0000 O.3     1  UNL1       -0.3915
      4 O           2.5357   -2.6997    0.0000 O.3     1  UNL1       -0.3917
      5 O           7.0628    1.8526    0.0000 O.2     1  UNL1       -0.3003
      6 O           9.1885    3.2259    0.0000 O.3     1  UNL1       -0.4571
      7 O          10.9491    3.5016    0.0000 O.2     1  UNL1       -0.2456
      8 C           6.1968   -0.6474    0.0000 C.3     1  UNL1       -0.0015
      9 C           7.0628   -1.1474    0.0000 C.3     1  UNL1       -0.0053
     10 C           7.9288   -0.6474    0.0000 C.3     1  UNL1        0.0819
     11 C           5.2868   -1.1542    0.0000 C.3     1  UNL1        0.0024
     12 C           7.9288    0.3526    0.0000 C.3     1  UNL1        0.0637
     13 C           5.2787   -2.1958    0.0000 C.3     1  UNL1        0.0741
     14 C           6.1968    0.3526    0.0000 C.3     1  UNL1        0.0600
     15 C           7.0628    0.8526    0.0000 C.3     1  UNL1       -0.0112
     16 C           7.0789   -2.1889    0.0000 C.3     1  UNL1       -0.0446
     17 C           8.8750    0.6574    0.0000 C.3     1  UNL1       -0.0013
     18 C           8.8750   -0.9521    0.0000 C.3     1  UNL1       -0.0222
     19 C           6.1808   -2.7166    0.0000 C.3     1  UNL1       -0.0230
     20 C           4.3599   -0.5901    0.0000 C.3     1  UNL1       -0.0423
     21 C           9.4586   -0.1474    0.0000 C.3     1  UNL1       -0.0428
     22 C           4.3433   -2.7455    0.0000 C.3     1  UNL1        0.0026
     23 C           5.2945   -0.1542    0.0000 C.3     1  UNL1       -0.0566
     24 C           3.4120   -1.1181    0.0000 C.3     1  UNL1       -0.0262
     25 C           3.4037   -2.2030    0.0000 C.3     1  UNL1        0.0579
     26 C           7.9288    1.3526    0.0000 C.2     1  UNL1        0.1298
     27 C           9.1857    1.6079    0.0000 C.2     1  UNL1       -0.0218
     28 C           8.5993    2.4179    0.0000 C.3     1  UNL1        0.1147
     29 C          10.1373    1.9152    0.0000 C.2     1  UNL1        0.0252
     30 C          10.1390    2.9152    0.0000 C.2     1  UNL1        0.3323
     31 H           6.9329   -0.2224    0.0000 H       1  UNL1        0.0335
     32 H           7.8022   -1.5667    0.0000 H       1  UNL1        0.0332
     33 H           6.1968    1.2026    0.0000 H       1  UNL1        0.0596
     34 H           7.4613    1.3276    0.0000 H       1  UNL1        0.0301
     35 H           6.6643    1.3276    0.0000 H       1  UNL1        0.0301
     36 H           7.2969   -2.7693    0.0000 H       1  UNL1        0.0270
     37 H           7.6880   -2.0734    0.0000 H       1  UNL1        0.0270
     38 H           9.7148    0.7892    0.0000 H       1  UNL1        0.0357
     39 H           8.6240   -1.5190    0.0000 H       1  UNL1        0.0293
     40 H           9.4124   -1.2613    0.0000 H       1  UNL1        0.0293
     41 H           5.7835   -3.1926    0.0000 H       1  UNL1        0.0293
     42 H           6.5818   -3.1895    0.0000 H       1  UNL1        0.0293
     43 H           4.7681   -0.1235    0.0000 H       1  UNL1        0.0272
     44 H           3.9700   -0.1081    0.0000 H       1  UNL1        0.0272
     45 H           9.9195   -0.5621    0.0000 H       1  UNL1        0.0272
     46 H           9.9195    0.2674    0.0000 H       1  UNL1        0.0272
     47 H           3.9460   -3.2215    0.0000 H       1  UNL1        0.0318
     48 H           4.7443   -3.2184    0.0000 H       1  UNL1        0.0318
     49 H           5.9145   -0.1590    0.0000 H       1  UNL1        0.0236
     50 H           5.2993    0.4657    0.0000 H       1  UNL1        0.0236
     51 H           4.6745   -0.1495    0.0000 H       1  UNL1        0.0236
     52 H           3.2075   -0.5328    0.0000 H       1  UNL1        0.0290
     53 H           2.8004   -1.2195    0.0000 H       1  UNL1        0.0290
     54 H           3.4025   -2.8230    0.0000 H       1  UNL1        0.0594
     55 H           8.4658    1.6626    0.0000 H       1  UNL1        0.1033
     56 H           8.4658   -1.9574    0.0000 H       1  UNL1        0.2102
     57 H           4.7317   -3.5016    0.0000 H       1  UNL1        0.2102
     58 H           5.3307    1.4726    0.0000 H       1  UNL1        0.2098
     59 H           8.1393    2.8336    0.0000 H       1  UNL1        0.0746
     60 H           8.1378    2.0038    0.0000 H       1  UNL1        0.0746
     61 H          10.6383    1.5500    0.0000 H       1  UNL1        0.0689
     62 H           2.0000   -2.3876    0.0000 H       1  UNL1        0.2098
@<TRIPOS>BOND
     1    10     1    1
     2     1    56    1
     3    13     2    1
     4     2    57    1
     5     3    14    1
     6     3    58    1
     7    25     4    1
     8     4    62    1
     9     5    26    2
    10     6    28    1
    11     6    30    1
    12     7    30    2
    13     8     9    1
    14     8    11    1
    15     8    14    1
    16     8    31    1
    17     9    10    1
    18     9    16    1
    19     9    32    1
    20    10    12    1
    21    10    18    1
    22    11    13    1
    23    11    20    1
    24    11    23    1
    25    12    15    1
    26    12    17    1
    27    12    26    1
    28    13    19    1
    29    13    22    1
    30    14    15    1
    31    14    33    1
    32    15    34    1
    33    15    35    1
    34    16    19    1
    35    16    36    1
    36    16    37    1
    37    17    21    1
    38    17    27    1
    39    17    38    1
    40    18    21    1
    41    18    39    1
    42    18    40    1
    43    19    41    1
    44    19    42    1
    45    20    24    1
    46    20    43    1
    47    20    44    1
    48    21    45    1
    49    21    46    1
    50    22    25    1
    51    22    47    1
    52    22    48    1
    53    23    49    1
    54    23    50    1
    55    23    51    1
    56    24    25    1
    57    24    52    1
    58    24    53    1
    59    25    54    1
    60    26    55    1
    61    27    28    1
    62    27    29    2
    63    28    59    1
    64    28    60    1
    65    29    30    1
    66    29    61    1
