@<TRIPOS>MOLECULE
IMPHY006766
 66 72 0 0 0
SMALL
GASTEIGER

@<TRIPOS>ATOM
      1 O           5.4275   -1.7756    0.0000 O.3     1  UNL1       -0.3516
      2 O           3.3389    1.8951    0.0000 O.3     1  UNL1       -0.3692
      3 O           8.1221   -2.3172    0.0000 O.3     1  UNL1       -0.4539
      4 O           4.5896   -2.3034    0.0000 O.3     1  UNL1       -0.3911
      5 O           6.1435    2.0702    0.0000 O.3     1  UNL1       -0.4639
      6 O           7.2161   -3.8380    0.0000 O.2     1  UNL1       -0.2478
      7 O           6.0560    3.8380    0.0000 O.2     1  UNL1       -0.2508
      8 O          10.0429    0.4492    0.0000 O.2     1  UNL1       -0.4706
      9 C           6.3380   -1.2688    0.0000 C.3     1  UNL1        0.1240
     10 C           5.4720   -0.7688    0.0000 C.3     1  UNL1        0.0301
     11 C           5.4720    0.2312    0.0000 C.3     1  UNL1       -0.0190
     12 C           4.5780    0.7659    0.0000 C.3     1  UNL1        0.0405
     13 C           7.2040   -0.7688    0.0000 C.3     1  UNL1        0.0419
     14 C           3.6720    0.2520    0.0000 C.3     1  UNL1        0.0014
     15 C           6.3220   -2.3103    0.0000 C.3     1  UNL1        0.1857
     16 C           4.5780   -1.3034    0.0000 C.3     1  UNL1        0.0640
     17 C           6.3380    0.7312    0.0000 C.3     1  UNL1       -0.0481
     18 C           7.2040    0.2312    0.0000 C.3     1  UNL1       -0.0409
     19 C           3.6720   -0.7896    0.0000 C.3     1  UNL1       -0.0201
     20 C           4.3680    1.7798    0.0000 C.3     1  UNL1        0.0787
     21 C           2.9097    0.9528    0.0000 C.3     1  UNL1        0.0679
     22 C           6.1221   -1.8945    0.0000 C.3     1  UNL1       -0.0542
     23 C           8.1140   -1.2756    0.0000 C.3     1  UNL1        0.1391
     24 C           5.6374    0.9684    0.0000 C.3     1  UNL1        0.1010
     25 C           8.0701   -0.2688    0.0000 C.3     1  UNL1       -0.0531
     26 C           7.2200   -2.8380    0.0000 C.2     1  UNL1        0.3398
     27 C           4.6907    2.8090    0.0000 C.3     1  UNL1        0.0718
     28 C           2.0000    1.3681    0.0000 C.3     1  UNL1       -0.0358
     29 C           2.2336    0.2160    0.0000 C.3     1  UNL1       -0.0358
     30 C           8.9742   -0.7656    0.0000 C.ar    1  UNL1        0.0310
     31 C           5.5855    2.9557    0.0000 C.2     1  UNL1        0.3096
     32 C           9.8924   -1.1618    0.0000 C.ar    1  UNL1       -0.0172
     33 C           9.0672    0.2300    0.0000 C.ar    1  UNL1        0.0984
     34 C          10.5529   -0.4109    0.0000 C.ar    1  UNL1        0.0921
     35 H           6.2081   -0.1938    0.0000 H       1  UNL1        0.0315
     36 H           2.8937   -0.0897    0.0000 H       1  UNL1        0.0337
     37 H           5.8886   -3.0415    0.0000 H       1  UNL1        0.0743
     38 H           4.0441   -1.6186    0.0000 H       1  UNL1        0.0600
     39 H           6.7366    1.2062    0.0000 H       1  UNL1        0.0269
     40 H           5.9395    1.2062    0.0000 H       1  UNL1        0.0269
     41 H           7.8146    0.1236    0.0000 H       1  UNL1        0.0273
     42 H           7.4161    0.8138    0.0000 H       1  UNL1        0.0273
     43 H           3.0611   -0.6835    0.0000 H       1  UNL1        0.0294
     44 H           3.4629   -1.3733    0.0000 H       1  UNL1        0.0294
     45 H           3.9038    2.4919    0.0000 H       1  UNL1        0.0608
     46 H           5.5852   -2.2046    0.0000 H       1  UNL1        0.0237
     47 H           6.4322   -2.4314    0.0000 H       1  UNL1        0.0237
     48 H           6.6590   -1.5845    0.0000 H       1  UNL1        0.0237
     49 H           8.6539   -1.5804    0.0000 H       1  UNL1        0.0793
     50 H           5.6265    0.3485    0.0000 H       1  UNL1        0.0704
     51 H           6.2419    0.8307    0.0000 H       1  UNL1        0.0704
     52 H           8.3801   -0.8057    0.0000 H       1  UNL1        0.0237
     53 H           8.6070    0.0412    0.0000 H       1  UNL1        0.0237
     54 H           7.7601    0.2682    0.0000 H       1  UNL1        0.0237
     55 H           4.6863    3.4290    0.0000 H       1  UNL1        0.0403
     56 H           4.0775    2.9006    0.0000 H       1  UNL1        0.0403
     57 H           4.0563   -2.6196    0.0000 H       1  UNL1        0.2098
     58 H           1.7767    0.6352    0.0000 H       1  UNL1        0.0257
     59 H           1.8144   -0.2408    0.0000 H       1  UNL1        0.0257
     60 H           2.2575    1.9321    0.0000 H       1  UNL1        0.0257
     61 H           1.4360    1.6256    0.0000 H       1  UNL1        0.0257
     62 H           2.6904   -0.2032    0.0000 H       1  UNL1        0.0257
     63 H           1.7425    0.8041    0.0000 H       1  UNL1        0.0257
     64 H          10.0283   -1.7667    0.0000 H       1  UNL1        0.0653
     65 H           8.6017    0.6395    0.0000 H       1  UNL1        0.1033
     66 H          11.1702   -0.4686    0.0000 H       1  UNL1        0.1029
@<TRIPOS>BOND
     1     9     1    1
     2     1    15    1
     3     2    20    1
     4     2    21    1
     5     3    23    1
     6     3    26    1
     7    16     4    1
     8     4    57    1
     9     5    24    1
    10     5    31    1
    11     6    26    2
    12     7    31    2
    13     8    33   ar
    14     8    34   ar
    15     9    10    1
    16     9    13    1
    17     9    15    1
    18    10    11    1
    19    10    16    1
    20    10    22    1
    21    11    12    1
    22    11    17    1
    23    11    35    1
    24    12    14    1
    25    12    20    1
    26    12    24    1
    27    13    18    1
    28    13    23    1
    29    13    25    1
    30    14    19    1
    31    14    21    1
    32    14    36    1
    33    15    26    1
    34    15    37    1
    35    16    19    1
    36    16    38    1
    37    17    18    1
    38    17    39    1
    39    17    40    1
    40    18    41    1
    41    18    42    1
    42    19    43    1
    43    19    44    1
    44    20    27    1
    45    20    45    1
    46    21    28    1
    47    21    29    1
    48    22    46    1
    49    22    47    1
    50    22    48    1
    51    23    30    1
    52    23    49    1
    53    24    50    1
    54    24    51    1
    55    25    52    1
    56    25    53    1
    57    25    54    1
    58    27    31    1
    59    27    55    1
    60    27    56    1
    61    28    60    1
    62    28    61    1
    63    28    63    1
    64    29    58    1
    65    29    59    1
    66    29    62    1
    67    30    32   ar
    68    30    33   ar
    69    32    34   ar
    70    32    64    1
    71    33    65    1
    72    34    66    1
