@<TRIPOS>MOLECULE
IMPHY011858
 43 44 0 0 0
SMALL
GASTEIGER

@<TRIPOS>ATOM
      1 O           8.0622   -0.8060    0.0000 O.3     1  UNL1       -0.4555
      2 O           9.2942    2.0600    0.0000 O.3     1  UNL1       -0.3772
      3 O           9.7942   -1.8060    0.0000 O.3     1  UNL1       -0.3856
      4 O          11.5263   -0.8060    0.0000 O.3     1  UNL1       -0.3890
      5 O          11.2942    2.0600    0.0000 O.3     1  UNL1       -0.4786
      6 O           9.7942    2.9260    0.0000 O.2     1  UNL1       -0.2478
      7 O           7.1962    0.6940    0.0000 O.2     1  UNL1       -0.2456
      8 O           2.0000   -0.3060    0.0000 O.3     1  UNL1       -0.5033
      9 O           2.0000   -2.3060    0.0000 O.3     1  UNL1       -0.5033
     10 C           9.7942    1.1940    0.0000 C.3     1  UNL1        0.1677
     11 C           8.9282   -0.3060    0.0000 C.3     1  UNL1        0.1346
     12 C           8.9282    0.6940    0.0000 C.3     1  UNL1        0.0264
     13 C          10.6603    0.6940    0.0000 C.3     1  UNL1        0.0153
     14 C           9.7942   -0.8060    0.0000 C.3     1  UNL1        0.1180
     15 C          10.6603   -0.3060    0.0000 C.3     1  UNL1        0.0877
     16 C          10.2942    2.0600    0.0000 C.2     1  UNL1        0.3370
     17 C           7.1962   -0.3060    0.0000 C.2     1  UNL1        0.3323
     18 C           6.3301   -0.8060    0.0000 C.2     1  UNL1        0.0231
     19 C           5.4641   -0.3060    0.0000 C.2     1  UNL1       -0.0477
     20 C           4.5981   -0.8060    0.0000 C.ar    1  UNL1       -0.0211
     21 C           3.7320   -0.3060    0.0000 C.ar    1  UNL1       -0.0094
     22 C           4.5981   -1.8060    0.0000 C.ar    1  UNL1       -0.0509
     23 C           2.8660   -0.8060    0.0000 C.ar    1  UNL1        0.1588
     24 C           3.7320   -2.3060    0.0000 C.ar    1  UNL1       -0.0160
     25 C           2.8660   -1.8060    0.0000 C.ar    1  UNL1        0.1582
     26 H           8.9282   -0.9260    0.0000 H       1  UNL1        0.0762
     27 H           8.7162    1.2766    0.0000 H       1  UNL1        0.0335
     28 H           8.3176    0.5863    0.0000 H       1  UNL1        0.0335
     29 H          11.2708    0.5863    0.0000 H       1  UNL1        0.0324
     30 H          10.8723    1.2766    0.0000 H       1  UNL1        0.0324
     31 H          10.3312   -1.1160    0.0000 H       1  UNL1        0.0656
     32 H          11.1972    0.0040    0.0000 H       1  UNL1        0.0621
     33 H           8.6742    2.0600    0.0000 H       1  UNL1        0.2109
     34 H          10.3312   -2.1160    0.0000 H       1  UNL1        0.2100
     35 H          12.0632   -0.4960    0.0000 H       1  UNL1        0.2099
     36 H          11.6042    2.5969    0.0000 H       1  UNL1        0.2951
     37 H           6.3301   -1.4260    0.0000 H       1  UNL1        0.0689
     38 H           5.4641    0.3140    0.0000 H       1  UNL1        0.0626
     39 H           3.7320    0.3140    0.0000 H       1  UNL1        0.0661
     40 H           5.1350   -2.1160    0.0000 H       1  UNL1        0.0625
     41 H           3.7320   -2.9260    0.0000 H       1  UNL1        0.0655
     42 H           2.0000    0.3140    0.0000 H       1  UNL1        0.2923
     43 H           2.0000   -2.9260    0.0000 H       1  UNL1        0.2923
@<TRIPOS>BOND
     1    11     1    1
     2     1    17    1
     3    10     2    1
     4     2    33    1
     5    14     3    1
     6     3    34    1
     7    15     4    1
     8     4    35    1
     9     5    16    1
    10     5    36    1
    11     6    16    2
    12     7    17    2
    13     8    23    1
    14     8    42    1
    15     9    25    1
    16     9    43    1
    17    10    12    1
    18    10    13    1
    19    10    16    1
    20    11    12    1
    21    11    14    1
    22    11    26    1
    23    12    27    1
    24    12    28    1
    25    13    15    1
    26    13    29    1
    27    13    30    1
    28    14    15    1
    29    14    31    1
    30    15    32    1
    31    17    18    1
    32    18    19    2
    33    18    37    1
    34    19    20    1
    35    19    38    1
    36    20    21   ar
    37    20    22   ar
    38    21    23   ar
    39    21    39    1
    40    22    24   ar
    41    22    40    1
    42    23    25   ar
    43    24    25   ar
    44    24    41    1
