@<TRIPOS>MOLECULE
IMPHY000066
 60 60 0 0 0
SMALL
GASTEIGER

@<TRIPOS>ATOM
      1 O           2.0000   -6.2500    0.0000 O.3     1  UNL1       -0.4950
      2 O           5.4641   -6.2500    0.0000 O.3     1  UNL1       -0.5066
      3 C           5.4641   -0.2500    0.0000 C.3     1  UNL1       -0.0531
      4 C           5.4641   -1.2500    0.0000 C.3     1  UNL1       -0.0530
      5 C           6.3301    0.2500    0.0000 C.3     1  UNL1       -0.0530
      6 C           4.5981   -1.7500    0.0000 C.3     1  UNL1       -0.0528
      7 C           6.3301    1.2500    0.0000 C.3     1  UNL1       -0.0528
      8 C           4.5981   -2.7500    0.0000 C.3     1  UNL1       -0.0491
      9 C           7.1962    1.7500    0.0000 C.3     1  UNL1       -0.0496
     10 C           3.7320   -3.2500    0.0000 C.3     1  UNL1       -0.0275
     11 C           7.1962    2.7500    0.0000 C.3     1  UNL1       -0.0348
     12 C           3.7320   -4.2500    0.0000 C.ar    1  UNL1       -0.0405
     13 C           8.0622    3.2500    0.0000 C.2     1  UNL1       -0.0879
     14 C           7.1962    4.7500    0.0000 C.3     1  UNL1       -0.0348
     15 C           8.0622    4.2500    0.0000 C.2     1  UNL1       -0.0879
     16 C           2.8660   -4.7500    0.0000 C.ar    1  UNL1       -0.0165
     17 C           4.5981   -4.7500    0.0000 C.ar    1  UNL1       -0.0168
     18 C           7.1962    5.7500    0.0000 C.3     1  UNL1       -0.0499
     19 C           6.3301    6.2500    0.0000 C.3     1  UNL1       -0.0556
     20 C           2.8660   -5.7500    0.0000 C.ar    1  UNL1        0.1238
     21 C           4.5981   -5.7500    0.0000 C.ar    1  UNL1        0.1206
     22 C           3.7320   -6.2500    0.0000 C.ar    1  UNL1        0.0215
     23 C           6.3301    7.2500    0.0000 C.3     1  UNL1       -0.0653
     24 C           2.0000   -7.2500    0.0000 C.3     1  UNL1        0.0788
     25 H           5.2520    0.3326    0.0000 H       1  UNL1        0.0265
     26 H           4.8535   -0.3577    0.0000 H       1  UNL1        0.0265
     27 H           5.6762   -1.8326    0.0000 H       1  UNL1        0.0265
     28 H           6.0747   -1.1423    0.0000 H       1  UNL1        0.0265
     29 H           6.5422   -0.3326    0.0000 H       1  UNL1        0.0265
     30 H           6.9407    0.3577    0.0000 H       1  UNL1        0.0265
     31 H           4.3860   -1.1674    0.0000 H       1  UNL1        0.0265
     32 H           3.9875   -1.8577    0.0000 H       1  UNL1        0.0265
     33 H           6.1181    1.8326    0.0000 H       1  UNL1        0.0265
     34 H           5.7196    1.1423    0.0000 H       1  UNL1        0.0265
     35 H           4.8101   -3.3326    0.0000 H       1  UNL1        0.0268
     36 H           5.2087   -2.6423    0.0000 H       1  UNL1        0.0268
     37 H           7.4082    1.1674    0.0000 H       1  UNL1        0.0268
     38 H           7.8067    1.8577    0.0000 H       1  UNL1        0.0268
     39 H           3.5200   -2.6674    0.0000 H       1  UNL1        0.0313
     40 H           3.1215   -3.3577    0.0000 H       1  UNL1        0.0313
     41 H           6.9841    3.3326    0.0000 H       1  UNL1        0.0307
     42 H           6.5856    2.6423    0.0000 H       1  UNL1        0.0307
     43 H           8.5991    2.9400    0.0000 H       1  UNL1        0.0569
     44 H           6.5856    4.8577    0.0000 H       1  UNL1        0.0307
     45 H           6.9841    4.1674    0.0000 H       1  UNL1        0.0307
     46 H           8.5991    4.5600    0.0000 H       1  UNL1        0.0569
     47 H           2.3291   -4.4400    0.0000 H       1  UNL1        0.0657
     48 H           5.1350   -4.4400    0.0000 H       1  UNL1        0.0657
     49 H           7.8067    5.6423    0.0000 H       1  UNL1        0.0268
     50 H           7.4082    6.3326    0.0000 H       1  UNL1        0.0268
     51 H           5.7196    6.3577    0.0000 H       1  UNL1        0.0263
     52 H           6.1181    5.6674    0.0000 H       1  UNL1        0.0263
     53 H           3.7320   -6.8700    0.0000 H       1  UNL1        0.0691
     54 H           6.9501    7.2500    0.0000 H       1  UNL1        0.0230
     55 H           6.3301    7.8700    0.0000 H       1  UNL1        0.0230
     56 H           5.7101    7.2500    0.0000 H       1  UNL1        0.0230
     57 H           5.4641   -6.8700    0.0000 H       1  UNL1        0.2921
     58 H           1.3800   -7.2500    0.0000 H       1  UNL1        0.0660
     59 H           2.0000   -7.8700    0.0000 H       1  UNL1        0.0660
     60 H           2.6200   -7.2500    0.0000 H       1  UNL1        0.0660
@<TRIPOS>BOND
     1     1    20    1
     2     1    24    1
     3     2    21    1
     4     2    57    1
     5     3     4    1
     6     3     5    1
     7     3    25    1
     8     3    26    1
     9     4     6    1
    10     4    27    1
    11     4    28    1
    12     5     7    1
    13     5    29    1
    14     5    30    1
    15     6     8    1
    16     6    31    1
    17     6    32    1
    18     7     9    1
    19     7    33    1
    20     7    34    1
    21     8    10    1
    22     8    35    1
    23     8    36    1
    24     9    11    1
    25     9    37    1
    26     9    38    1
    27    10    12    1
    28    10    39    1
    29    10    40    1
    30    11    13    1
    31    11    41    1
    32    11    42    1
    33    12    16   ar
    34    12    17   ar
    35    13    15    2
    36    13    43    1
    37    14    15    1
    38    14    18    1
    39    14    44    1
    40    14    45    1
    41    15    46    1
    42    16    20   ar
    43    16    47    1
    44    17    21   ar
    45    17    48    1
    46    18    19    1
    47    18    49    1
    48    18    50    1
    49    19    23    1
    50    19    51    1
    51    19    52    1
    52    20    22   ar
    53    21    22   ar
    54    22    53    1
    55    23    54    1
    56    23    55    1
    57    23    56    1
    58    24    58    1
    59    24    59    1
    60    24    60    1
