@<TRIPOS>MOLECULE
IMPHY005234
 66 70 0 0 0
SMALL
GASTEIGER

@<TRIPOS>ATOM
      1 O           6.4315    3.8255    0.0000 O.2     1  UNL1       -0.2960
      2 O          10.3986   -0.6525    0.0000 O.3     1  UNL1       -0.4554
      3 O           3.2186    2.6179    0.0000 O.2     1  UNL1       -0.2961
      4 O           3.1863   -2.2349    0.0000 O.3     1  UNL1       -0.4679
      5 O          11.1371    0.9979    0.0000 O.2     1  UNL1       -0.2505
      6 O           2.4000   -0.6916    0.0000 O.2     1  UNL1       -0.2509
      7 O           9.1675   -3.8255    0.0000 O.2     1  UNL1       -0.4706
      8 C           5.4537    1.0110    0.0000 C.3     1  UNL1        0.0375
      9 C           6.6747    0.1453    0.0000 C.3     1  UNL1       -0.0072
     10 C           4.1820    0.2163    0.0000 C.3     1  UNL1       -0.0065
     11 C           3.4049    0.8457    0.0000 C.3     1  UNL1        0.0283
     12 C           7.5038    0.7045    0.0000 C.2     1  UNL1       -0.0640
     13 C           5.1949    1.9769    0.0000 C.3     1  UNL1        0.0805
     14 C           6.7314   -0.8948    0.0000 C.3     1  UNL1       -0.0447
     15 C           8.5276   -0.7761    0.0000 C.3     1  UNL1        0.0310
     16 C           5.9315    2.9595    0.0000 C.2     1  UNL1        0.1505
     17 C           7.2281    1.6658    0.0000 C.3     1  UNL1       -0.0148
     18 C           8.4469    0.2624    0.0000 C.2     1  UNL1       -0.0497
     19 C           7.6640   -1.3586    0.0000 C.3     1  UNL1       -0.0396
     20 C           3.7632    1.7792    0.0000 C.2     1  UNL1        0.1497
     21 C           5.1948    0.0451    0.0000 C.3     1  UNL1       -0.0520
     22 C           4.1297   -0.7823    0.0000 C.3     1  UNL1        0.0495
     23 C           9.4991   -1.2593    0.0000 C.3     1  UNL1        0.1399
     24 C           2.4390    1.1045    0.0000 C.3     1  UNL1       -0.0528
     25 C           2.6978    0.1385    0.0000 C.3     1  UNL1       -0.0528
     26 C           9.3321    0.8897    0.0000 C.3     1  UNL1        0.0670
     27 C           8.6050   -1.7731    0.0000 C.3     1  UNL1       -0.0521
     28 C          10.3145    0.4292    0.0000 C.2     1  UNL1        0.3118
     29 C           9.5650   -2.2571    0.0000 C.ar    1  UNL1        0.0312
     30 C           3.2387   -1.2363    0.0000 C.2     1  UNL1        0.3071
     31 C          10.4110   -2.7903    0.0000 C.ar    1  UNL1       -0.0172
     32 C           8.7965   -2.8969    0.0000 C.ar    1  UNL1        0.0984
     33 C          10.1653   -3.7596    0.0000 C.ar    1  UNL1        0.0921
     34 C           2.2953   -2.6889    0.0000 C.3     1  UNL1        0.0817
     35 H           5.9700   -0.3300    0.0000 H       1  UNL1        0.0355
     36 H           3.6156   -0.0358    0.0000 H       1  UNL1        0.0325
     37 H           4.9749    2.7979    0.0000 H       1  UNL1        0.0458
     38 H           6.5543   -1.4890    0.0000 H       1  UNL1        0.0272
     39 H           6.1156   -0.8221    0.0000 H       1  UNL1        0.0272
     40 H           7.2332    2.2858    0.0000 H       1  UNL1        0.0321
     41 H           7.8424    1.7496    0.0000 H       1  UNL1        0.0321
     42 H           8.0936   -1.8057    0.0000 H       1  UNL1        0.0275
     43 H           7.2970   -1.8583    0.0000 H       1  UNL1        0.0275
     44 H           5.7937   -0.1154    0.0000 H       1  UNL1        0.0239
     45 H           5.0343   -0.5538    0.0000 H       1  UNL1        0.0239
     46 H           4.5960    0.2056    0.0000 H       1  UNL1        0.0239
     47 H           4.7451   -0.7067    0.0000 H       1  UNL1        0.0381
     48 H           4.3110   -1.3752    0.0000 H       1  UNL1        0.0381
     49 H          10.0558   -1.5321    0.0000 H       1  UNL1        0.0795
     50 H           2.2785    0.5056    0.0000 H       1  UNL1        0.0239
     51 H           1.8401    1.2649    0.0000 H       1  UNL1        0.0239
     52 H           2.5994    1.7034    0.0000 H       1  UNL1        0.0239
     53 H           3.1362   -0.2999    0.0000 H       1  UNL1        0.0239
     54 H           2.2594   -0.2999    0.0000 H       1  UNL1        0.0239
     55 H           2.2594    0.5770    0.0000 H       1  UNL1        0.0239
     56 H           8.8924    1.3268    0.0000 H       1  UNL1        0.0423
     57 H           9.6875    1.3978    0.0000 H       1  UNL1        0.0423
     58 H           9.2232   -1.7251    0.0000 H       1  UNL1        0.0239
     59 H           8.6530   -2.3913    0.0000 H       1  UNL1        0.0239
     60 H           7.9869   -1.8211    0.0000 H       1  UNL1        0.0239
     61 H          10.9867   -2.5602    0.0000 H       1  UNL1        0.0653
     62 H           8.1955   -2.7446    0.0000 H       1  UNL1        0.1033
     63 H          10.5620   -4.2361    0.0000 H       1  UNL1        0.1029
     64 H           2.5768   -3.2413    0.0000 H       1  UNL1        0.0661
     65 H           1.7429   -2.9704    0.0000 H       1  UNL1        0.0661
     66 H           2.0139   -2.1365    0.0000 H       1  UNL1        0.0661
@<TRIPOS>BOND
     1     1    16    2
     2     2    23    1
     3     2    28    1
     4     3    20    2
     5     4    30    1
     6     4    34    1
     7     5    28    2
     8     6    30    2
     9     7    32   ar
    10     7    33   ar
    11     8     9    1
    12     8    10    1
    13     8    16    1
    14     8    21    1
    15     9    12    1
    16     9    14    1
    17     9    35    1
    18    10    11    1
    19    10    22    1
    20    10    36    1
    21    11    20    1
    22    11    24    1
    23    11    25    1
    24    12    17    1
    25    12    18    2
    26    13    16    1
    27    13    17    1
    28    13    20    1
    29    13    37    1
    30    14    19    1
    31    14    38    1
    32    14    39    1
    33    15    18    1
    34    15    19    1
    35    15    23    1
    36    15    27    1
    37    17    40    1
    38    17    41    1
    39    18    26    1
    40    19    42    1
    41    19    43    1
    42    21    44    1
    43    21    45    1
    44    21    46    1
    45    22    30    1
    46    22    47    1
    47    22    48    1
    48    23    29    1
    49    23    49    1
    50    24    50    1
    51    24    51    1
    52    24    52    1
    53    25    53    1
    54    25    54    1
    55    25    55    1
    56    26    28    1
    57    26    56    1
    58    26    57    1
    59    27    58    1
    60    27    59    1
    61    27    60    1
    62    29    31   ar
    63    29    32   ar
    64    31    33   ar
    65    31    61    1
    66    32    62    1
    67    33    63    1
    68    34    64    1
    69    34    65    1
    70    34    66    1
