@<TRIPOS>MOLECULE
IMPHY003239
 17 17 0 0 0
SMALL
GASTEIGER

@<TRIPOS>ATOM
      1 O           2.5369    0.2500    0.0000 O.3     1  UNL1       -0.5059
      2 O           6.0010   -1.7500    0.0000 O.3     1  UNL1       -0.5067
      3 O           5.1350    1.7500    0.0000 O.3     1  UNL1       -0.4770
      4 O           3.4030    1.7500    0.0000 O.2     1  UNL1       -0.2450
      5 C           4.2690    0.2500    0.0000 C.ar    1  UNL1        0.1035
      6 C           3.4030   -0.2500    0.0000 C.ar    1  UNL1        0.1310
      7 C           5.1350   -0.2500    0.0000 C.ar    1  UNL1       -0.0027
      8 C           5.1350   -1.2500    0.0000 C.ar    1  UNL1        0.1179
      9 C           3.4030   -1.2500    0.0000 C.ar    1  UNL1       -0.0159
     10 C           4.2690   -1.7500    0.0000 C.ar    1  UNL1       -0.0167
     11 C           4.2690    1.2500    0.0000 C.2     1  UNL1        0.3405
     12 H           5.6720    0.0600    0.0000 H       1  UNL1        0.0663
     13 H           2.8660   -1.5600    0.0000 H       1  UNL1        0.0655
     14 H           4.2690   -2.3700    0.0000 H       1  UNL1        0.0655
     15 H           2.0000   -0.0600    0.0000 H       1  UNL1        0.2922
     16 H           6.0010   -2.3700    0.0000 H       1  UNL1        0.2921
     17 H           5.1350    2.3700    0.0000 H       1  UNL1        0.2954
@<TRIPOS>BOND
     1     1     6    1
     2     1    15    1
     3     2     8    1
     4     2    16    1
     5     3    11    1
     6     3    17    1
     7     4    11    2
     8     5     6   ar
     9     5     7   ar
    10     5    11    1
    11     6     9   ar
    12     7     8   ar
    13     7    12    1
    14     8    10   ar
    15     9    10   ar
    16     9    13    1
    17    10    14    1
