@<TRIPOS>MOLECULE
IMPHY001263
 101 106 0 0 0
SMALL
GASTEIGER

@<TRIPOS>ATOM
      1 O          10.9848    0.8347    0.0000 O.3     1  UNL1       -0.4551
      2 O           9.1654    1.8666    0.0000 O.3     1  UNL1       -0.3881
      3 O           3.3248   -1.3769    0.0000 O.3     1  UNL1       -0.3880
      4 O           3.8493   -5.3514    0.0000 O.3     1  UNL1       -0.4802
      5 O           5.5813   -5.3647    0.0000 O.2     1  UNL1       -0.2504
      6 O          10.1130    2.3314    0.0000 O.2     1  UNL1       -0.2456
      7 O          15.3053    3.3514    0.0000 O.3     1  UNL1       -0.5033
      8 O          15.2976    5.3514    0.0000 O.3     1  UNL1       -0.5033
      9 C           7.3770   -2.3097    0.0000 C.3     1  UNL1       -0.0194
     10 C           7.3770   -1.3097    0.0000 C.3     1  UNL1       -0.0257
     11 C           8.2709   -0.7750    0.0000 C.3     1  UNL1       -0.0226
     12 C           6.5109   -2.8097    0.0000 C.3     1  UNL1       -0.0050
     13 C           9.1770   -1.2888    0.0000 C.3     1  UNL1       -0.0267
     14 C           8.2709   -2.8443    0.0000 C.3     1  UNL1       -0.0463
     15 C           5.6449   -2.3097    0.0000 C.2     1  UNL1       -0.0602
     16 C           9.1770   -2.3305    0.0000 C.3     1  UNL1       -0.0486
     17 C          10.1208   -0.7536    0.0000 C.3     1  UNL1        0.0080
     18 C           4.7349   -2.8165    0.0000 C.3     1  UNL1        0.0252
     19 C           6.5109   -0.8097    0.0000 C.3     1  UNL1       -0.0306
     20 C           8.2458    0.3097    0.0000 C.3     1  UNL1       -0.0174
     21 C           6.5270   -3.8512    0.0000 C.3     1  UNL1       -0.0424
     22 C           4.7269   -3.8581    0.0000 C.3     1  UNL1        0.0767
     23 C           5.6290   -4.3789    0.0000 C.3     1  UNL1       -0.0358
     24 C           7.7191   -3.2493    0.0000 C.3     1  UNL1       -0.0585
     25 C          10.1208    0.3314    0.0000 C.3     1  UNL1        0.1344
     26 C           5.6449   -1.3097    0.0000 C.2     1  UNL1       -0.0835
     27 C           9.1770    0.8666    0.0000 C.3     1  UNL1        0.0931
     28 C           7.4010   -0.2817    0.0000 C.3     1  UNL1       -0.0589
     29 C           3.8081   -2.2524    0.0000 C.3     1  UNL1        0.0733
     30 C           7.1537   -3.5757    0.0000 C.3     1  UNL1       -0.0553
     31 C           3.7914   -4.4078    0.0000 C.3     1  UNL1       -0.0363
     32 C           2.8602   -2.7804    0.0000 C.3     1  UNL1       -0.0146
     33 C          11.1207   -0.7575    0.0000 C.3     1  UNL1       -0.0561
     34 C          10.6174   -1.6216    0.0000 C.3     1  UNL1       -0.0561
     35 C           2.8518   -3.8653    0.0000 C.3     1  UNL1       -0.0468
     36 C           4.7192   -4.8581    0.0000 C.2     1  UNL1        0.3116
     37 C           4.3247   -1.3962    0.0000 C.3     1  UNL1       -0.0352
     38 C           2.0000   -2.2704    0.0000 C.3     1  UNL1       -0.0598
     39 C          10.9810    1.8347    0.0000 C.2     1  UNL1        0.3323
     40 C          11.8451    2.3380    0.0000 C.2     1  UNL1        0.0231
     41 C          11.8412    3.3380    0.0000 C.2     1  UNL1       -0.0477
     42 C          12.7053    3.8414    0.0000 C.ar    1  UNL1       -0.0211
     43 C          13.5733    3.3447    0.0000 C.ar    1  UNL1       -0.0094
     44 C          12.7015    4.8414    0.0000 C.ar    1  UNL1       -0.0509
     45 C          14.4374    3.8480    0.0000 C.ar    1  UNL1        0.1588
     46 C          13.5656    5.3447    0.0000 C.ar    1  UNL1       -0.0160
     47 C          14.4335    4.8480    0.0000 C.ar    1  UNL1        0.1582
     48 H           8.1163   -1.7290    0.0000 H       1  UNL1        0.0315
     49 H           9.9114   -1.7167    0.0000 H       1  UNL1        0.0312
     50 H           7.8663   -3.3141    0.0000 H       1  UNL1        0.0271
     51 H           8.6645   -3.3233    0.0000 H       1  UNL1        0.0271
     52 H           9.3860   -2.9142    0.0000 H       1  UNL1        0.0268
     53 H           9.7878   -2.2244    0.0000 H       1  UNL1        0.0268
     54 H           4.7513   -1.9667    0.0000 H       1  UNL1        0.0384
     55 H           6.9095   -0.3347    0.0000 H       1  UNL1        0.0310
     56 H           6.1124   -0.3347    0.0000 H       1  UNL1        0.0310
     57 H           8.0233    0.8884    0.0000 H       1  UNL1        0.0297
     58 H           7.6376    0.1895    0.0000 H       1  UNL1        0.0297
     59 H           6.7450   -4.4316    0.0000 H       1  UNL1        0.0274
     60 H           7.1361   -3.7357    0.0000 H       1  UNL1        0.0274
     61 H           5.2316   -4.8549    0.0000 H       1  UNL1        0.0276
     62 H           6.0299   -4.8518    0.0000 H       1  UNL1        0.0276
     63 H           7.1365   -3.4614    0.0000 H       1  UNL1        0.0235
     64 H           7.9312   -3.8319    0.0000 H       1  UNL1        0.0235
     65 H           8.3017   -3.0372    0.0000 H       1  UNL1        0.0235
     66 H          10.6583    0.0224    0.0000 H       1  UNL1        0.0766
     67 H           5.1080   -0.9997    0.0000 H       1  UNL1        0.0572
     68 H           8.6359    1.1693    0.0000 H       1  UNL1        0.0630
     69 H           7.7069    0.2576    0.0000 H       1  UNL1        0.0235
     70 H           6.8617    0.0242    0.0000 H       1  UNL1        0.0235
     71 H           7.0952   -0.8210    0.0000 H       1  UNL1        0.0235
     72 H           6.6788   -3.9742    0.0000 H       1  UNL1        0.0238
     73 H           7.5522   -4.0507    0.0000 H       1  UNL1        0.0238
     74 H           7.6287   -3.1772    0.0000 H       1  UNL1        0.0238
     75 H           3.3942   -4.8838    0.0000 H       1  UNL1        0.0276
     76 H           4.1924   -4.8807    0.0000 H       1  UNL1        0.0276
     77 H           2.3203   -3.0852    0.0000 H       1  UNL1        0.0326
     78 H          11.1184   -1.3775    0.0000 H       1  UNL1        0.0236
     79 H          11.7407   -0.7599    0.0000 H       1  UNL1        0.0236
     80 H          10.0793   -1.9295    0.0000 H       1  UNL1        0.0236
     81 H          10.9253   -2.1597    0.0000 H       1  UNL1        0.0236
     82 H          11.1555   -1.3136    0.0000 H       1  UNL1        0.0236
     83 H          11.1231   -0.1375    0.0000 H       1  UNL1        0.0236
     84 H           2.2418   -3.7545    0.0000 H       1  UNL1        0.0269
     85 H           2.6383   -4.4474    0.0000 H       1  UNL1        0.0269
     86 H           4.8555   -1.7165    0.0000 H       1  UNL1        0.0257
     87 H           4.6450   -0.8653    0.0000 H       1  UNL1        0.0257
     88 H           3.7938   -1.0759    0.0000 H       1  UNL1        0.0257
     89 H           8.6249    2.1703    0.0000 H       1  UNL1        0.2099
     90 H           2.3162   -1.7371    0.0000 H       1  UNL1        0.0233
     91 H           1.4667   -1.9542    0.0000 H       1  UNL1        0.0233
     92 H           1.6838   -2.8037    0.0000 H       1  UNL1        0.0233
     93 H           2.7050   -1.3650    0.0000 H       1  UNL1        0.2102
     94 H           3.8445   -5.9714    0.0000 H       1  UNL1        0.2951
     95 H          12.3832    2.0301    0.0000 H       1  UNL1        0.0689
     96 H          11.3031    3.6460    0.0000 H       1  UNL1        0.0626
     97 H          13.5757    2.7247    0.0000 H       1  UNL1        0.0661
     98 H          12.1633    5.1493    0.0000 H       1  UNL1        0.0625
     99 H          13.5632    5.9647    0.0000 H       1  UNL1        0.0655
    100 H          15.8410    3.6635    0.0000 H       1  UNL1        0.2923
    101 H          15.2952    5.9714    0.0000 H       1  UNL1        0.2923
@<TRIPOS>BOND
     1    25     1    1
     2     1    39    1
     3    27     2    1
     4     2    89    1
     5    29     3    1
     6     3    93    1
     7     4    36    1
     8     4    94    1
     9     5    36    2
    10     6    39    2
    11     7    45    1
    12     7   100    1
    13     8    47    1
    14     8   101    1
    15     9    10    1
    16     9    12    1
    17     9    14    1
    18     9    24    1
    19    10    11    1
    20    10    19    1
    21    10    48    1
    22    11    13    1
    23    11    20    1
    24    11    28    1
    25    12    15    1
    26    12    21    1
    27    12    30    1
    28    13    16    1
    29    13    17    1
    30    13    49    1
    31    14    16    1
    32    14    50    1
    33    14    51    1
    34    15    18    1
    35    15    26    2
    36    16    52    1
    37    16    53    1
    38    17    25    1
    39    17    33    1
    40    17    34    1
    41    18    22    1
    42    18    29    1
    43    18    54    1
    44    19    26    1
    45    19    55    1
    46    19    56    1
    47    20    27    1
    48    20    57    1
    49    20    58    1
    50    21    23    1
    51    21    59    1
    52    21    60    1
    53    22    23    1
    54    22    31    1
    55    22    36    1
    56    23    61    1
    57    23    62    1
    58    24    63    1
    59    24    64    1
    60    24    65    1
    61    25    27    1
    62    25    66    1
    63    26    67    1
    64    27    68    1
    65    28    69    1
    66    28    70    1
    67    28    71    1
    68    29    32    1
    69    29    37    1
    70    30    72    1
    71    30    73    1
    72    30    74    1
    73    31    35    1
    74    31    75    1
    75    31    76    1
    76    32    35    1
    77    32    38    1
    78    32    77    1
    79    33    78    1
    80    33    79    1
    81    33    83    1
    82    34    80    1
    83    34    81    1
    84    34    82    1
    85    35    84    1
    86    35    85    1
    87    37    86    1
    88    37    87    1
    89    37    88    1
    90    38    90    1
    91    38    91    1
    92    38    92    1
    93    39    40    1
    94    40    41    2
    95    40    95    1
    96    41    42    1
    97    41    96    1
    98    42    43   ar
    99    42    44   ar
   100    43    45   ar
   101    43    97    1
   102    44    46   ar
   103    44    98    1
   104    45    47   ar
   105    46    47   ar
   106    46    99    1
