@<TRIPOS>MOLECULE
IMPHY014520
 34 34 0 0 0
SMALL
GASTEIGER

@<TRIPOS>ATOM
      1 O           6.0010    1.6550    0.0000 O.3     1  UNL1       -0.4571
      2 O           2.5369   -3.3450    0.0000 O.3     1  UNL1       -0.5033
      3 O           4.2690   -4.3450    0.0000 O.3     1  UNL1       -0.5033
      4 O           4.2690    1.6550    0.0000 O.2     1  UNL1       -0.2456
      5 C           6.8671    3.1550    0.0000 C.2     1  UNL1       -0.0399
      6 C           6.0010    2.6550    0.0000 C.3     1  UNL1        0.1136
      7 C           4.2690   -1.3450    0.0000 C.ar    1  UNL1       -0.0211
      8 C           3.4030   -1.8450    0.0000 C.ar    1  UNL1       -0.0094
      9 C           7.7331    2.6550    0.0000 C.3     1  UNL1       -0.0406
     10 C           5.1350   -1.8450    0.0000 C.ar    1  UNL1       -0.0509
     11 C           6.8671    4.1550    0.0000 C.2     1  UNL1       -0.0849
     12 C           4.2690   -0.3450    0.0000 C.2     1  UNL1       -0.0477
     13 C           3.4030   -2.8450    0.0000 C.ar    1  UNL1        0.1588
     14 C           4.2690   -3.3450    0.0000 C.ar    1  UNL1        0.1582
     15 C           5.1350   -2.8450    0.0000 C.ar    1  UNL1       -0.0160
     16 C           5.1350    0.1550    0.0000 C.2     1  UNL1        0.0231
     17 C           5.1350    1.1550    0.0000 C.2     1  UNL1        0.3323
     18 C           7.7331    4.6550    0.0000 C.3     1  UNL1       -0.0465
     19 H           5.7890    3.2376    0.0000 H       1  UNL1        0.0745
     20 H           5.3905    2.5473    0.0000 H       1  UNL1        0.0745
     21 H           2.8660   -1.5350    0.0000 H       1  UNL1        0.0661
     22 H           7.4231    2.1181    0.0000 H       1  UNL1        0.0275
     23 H           8.2700    2.3450    0.0000 H       1  UNL1        0.0275
     24 H           8.0431    3.1919    0.0000 H       1  UNL1        0.0275
     25 H           5.6720   -1.5350    0.0000 H       1  UNL1        0.0625
     26 H           6.3301    4.4650    0.0000 H       1  UNL1        0.0570
     27 H           3.7320   -0.0350    0.0000 H       1  UNL1        0.0626
     28 H           5.6720   -3.1550    0.0000 H       1  UNL1        0.0655
     29 H           5.6720   -0.1550    0.0000 H       1  UNL1        0.0689
     30 H           8.0431    4.1181    0.0000 H       1  UNL1        0.0272
     31 H           8.2700    4.9650    0.0000 H       1  UNL1        0.0272
     32 H           7.4231    5.1919    0.0000 H       1  UNL1        0.0272
     33 H           2.0000   -3.0350    0.0000 H       1  UNL1        0.2923
     34 H           4.8059   -4.6550    0.0000 H       1  UNL1        0.2923
@<TRIPOS>BOND
     1     1     6    1
     2     1    17    1
     3     2    13    1
     4     2    33    1
     5     3    14    1
     6     3    34    1
     7     4    17    2
     8     5     6    1
     9     5     9    1
    10     5    11    2
    11     6    19    1
    12     6    20    1
    13     7     8   ar
    14     7    10   ar
    15     7    12    1
    16     8    13   ar
    17     8    21    1
    18     9    22    1
    19     9    23    1
    20     9    24    1
    21    10    15   ar
    22    10    25    1
    23    11    18    1
    24    11    26    1
    25    12    16    2
    26    12    27    1
    27    13    14   ar
    28    14    15   ar
    29    15    28    1
    30    16    17    1
    31    16    29    1
    32    18    30    1
    33    18    31    1
    34    18    32    1
