@<TRIPOS>MOLECULE
IMPHY016943
 45 46 0 0 0
SMALL
GASTEIGER

@<TRIPOS>ATOM
      1 O           7.4226    1.2911    0.0000 O.3     1  UNL1       -0.4604
      2 O           8.2886    2.7911    0.0000 O.2     1  UNL1       -0.2512
      3 C           4.0835   -1.8507    0.0000 C.3     1  UNL1       -0.0310
      4 C           4.4245   -0.9018    0.0000 C.3     1  UNL1       -0.0291
      5 C           3.4848   -0.5598    0.0000 C.3     1  UNL1       -0.0163
      6 C           3.1361   -1.5058    0.0000 C.3     1  UNL1       -0.0408
      7 C           5.3642   -0.5598    0.0000 C.3     1  UNL1       -0.0454
      8 C           3.7434   -2.7911    0.0000 C.3     1  UNL1       -0.0595
      9 C           5.0239   -2.1908    0.0000 C.3     1  UNL1       -0.0595
     10 C           2.9848    0.3063    0.0000 C.2     1  UNL1       -0.0729
     11 C           5.8642    0.3063    0.0000 C.3     1  UNL1       -0.0283
     12 C           3.1585    1.2911    0.0000 C.3     1  UNL1       -0.0283
     13 C           5.6905    1.2911    0.0000 C.2     1  UNL1       -0.0365
     14 C           3.9245    1.9339    0.0000 C.3     1  UNL1       -0.0307
     15 C           2.0000    0.1326    0.0000 C.2     1  UNL1       -0.0992
     16 C           4.9245    1.9339    0.0000 C.2     1  UNL1       -0.0813
     17 C           6.5566    1.7911    0.0000 C.3     1  UNL1        0.1136
     18 C           8.2886    1.7911    0.0000 C.2     1  UNL1        0.3042
     19 C           9.1546    1.2911    0.0000 C.3     1  UNL1        0.0332
     20 H           5.0268   -1.5016    0.0000 H       1  UNL1        0.0312
     21 H           2.6379   -0.6321    0.0000 H       1  UNL1        0.0349
     22 H           2.5540   -1.2922    0.0000 H       1  UNL1        0.0276
     23 H           2.9232   -2.0881    0.0000 H       1  UNL1        0.0276
     24 H           5.4002   -1.1787    0.0000 H       1  UNL1        0.0271
     25 H           5.9675   -0.7027    0.0000 H       1  UNL1        0.0271
     26 H           3.1604   -2.5802    0.0000 H       1  UNL1        0.0235
     27 H           3.5326   -3.3741    0.0000 H       1  UNL1        0.0235
     28 H           4.3265   -3.0019    0.0000 H       1  UNL1        0.0235
     29 H           4.8131   -2.7738    0.0000 H       1  UNL1        0.0235
     30 H           5.6070   -2.4016    0.0000 H       1  UNL1        0.0235
     31 H           5.2348   -1.6077    0.0000 H       1  UNL1        0.0235
     32 H           6.2897   -0.1447    0.0000 H       1  UNL1        0.0311
     33 H           6.4182    0.5845    0.0000 H       1  UNL1        0.0311
     34 H           2.9129    1.8604    0.0000 H       1  UNL1        0.0313
     35 H           2.5426    1.2191    0.0000 H       1  UNL1        0.0313
     36 H           4.1023    2.5278    0.0000 H       1  UNL1        0.0310
     37 H           3.4065    2.2746    0.0000 H       1  UNL1        0.0310
     38 H           1.6015    0.6076    0.0000 H       1  UNL1        0.0534
     39 H           1.7880   -0.4500    0.0000 H       1  UNL1        0.0534
     40 H           5.1366    2.5165    0.0000 H       1  UNL1        0.0573
     41 H           6.9551    2.2660    0.0000 H       1  UNL1        0.0745
     42 H           6.1580    2.2660    0.0000 H       1  UNL1        0.0745
     43 H           8.8446    0.7541    0.0000 H       1  UNL1        0.0342
     44 H           9.6916    0.9811    0.0000 H       1  UNL1        0.0342
     45 H           9.4646    1.8280    0.0000 H       1  UNL1        0.0342
@<TRIPOS>BOND
     1     1    17    1
     2     1    18    1
     3     2    18    2
     4     3     4    1
     5     3     6    1
     6     3     8    1
     7     3     9    1
     8     4     5    1
     9     4     7    1
    10     4    20    1
    11     5     6    1
    12     5    10    1
    13     5    21    1
    14     6    22    1
    15     6    23    1
    16     7    11    1
    17     7    24    1
    18     7    25    1
    19     8    26    1
    20     8    27    1
    21     8    28    1
    22     9    29    1
    23     9    30    1
    24     9    31    1
    25    10    12    1
    26    10    15    2
    27    11    13    1
    28    11    32    1
    29    11    33    1
    30    12    14    1
    31    12    34    1
    32    12    35    1
    33    13    16    2
    34    13    17    1
    35    14    16    1
    36    14    36    1
    37    14    37    1
    38    15    38    1
    39    15    39    1
    40    16    40    1
    41    17    41    1
    42    17    42    1
    43    18    19    1
    44    19    43    1
    45    19    44    1
    46    19    45    1
