@<TRIPOS>MOLECULE
IMPHY000920
 46 50 0 0 0
SMALL
GASTEIGER

@<TRIPOS>ATOM
      1 O           4.6209    2.9742    0.0000 O.3     1  UNL1       -0.4568
      2 O           5.4860   -1.4890    0.0000 O.3     1  UNL1       -0.4558
      3 O           2.6200    2.4160    0.0000 O.3     1  UNL1       -0.3940
      4 O           6.7222   -0.9125    0.0000 O.2     1  UNL1       -0.2498
      5 O           3.0895    3.8368    0.0000 O.2     1  UNL1       -0.2453
      6 O           3.3982   -3.8368    0.0000 O.2     1  UNL1       -0.4706
      7 C           4.1200    1.5498    0.0000 C.3     1  UNL1        0.0665
      8 C           4.1200    0.5499    0.0000 C.3     1  UNL1       -0.0057
      9 C           4.9860    0.0499    0.0000 C.3     1  UNL1        0.0960
     10 C           4.9860    2.0498    0.0000 C.3     1  UNL1        0.1192
     11 C           3.2260    0.0152    0.0000 C.3     1  UNL1       -0.0444
     12 C           5.8520    1.5498    0.0000 C.3     1  UNL1        0.0073
     13 C           5.8520    0.5499    0.0000 C.2     1  UNL1       -0.0560
     14 C           3.2260    2.0845    0.0000 C.2     1  UNL1        0.0448
     15 C           4.1770   -0.5379    0.0000 C.3     1  UNL1        0.0085
     16 C           3.1200    1.5500    0.0000 C.3     1  UNL1        0.0577
     17 C           2.3200    0.5290    0.0000 C.3     1  UNL1       -0.0337
     18 C           5.7950   -0.5379    0.0000 C.2     1  UNL1        0.3184
     19 C           4.4860   -1.4890    0.0000 C.3     1  UNL1        0.1323
     20 C           2.3200    1.5707    0.0000 C.2     1  UNL1       -0.0733
     21 C           3.6272    2.9937    0.0000 C.2     1  UNL1        0.3359
     22 C           6.8368    0.7235    0.0000 C.2     1  UNL1       -0.0983
     23 C           3.8982   -2.2980    0.0000 C.ar    1  UNL1        0.0304
     24 C           2.8982   -2.2980    0.0000 C.ar    1  UNL1       -0.0172
     25 C           4.2072   -3.2491    0.0000 C.ar    1  UNL1        0.0983
     26 C           2.5892   -3.2491    0.0000 C.ar    1  UNL1        0.0921
     27 H           4.1265   -0.3001    0.0000 H       1  UNL1        0.0325
     28 H           5.6297    2.6050    0.0000 H       1  UNL1        0.0747
     29 H           2.8324   -0.4638    0.0000 H       1  UNL1        0.0272
     30 H           3.6306   -0.4546    0.0000 H       1  UNL1        0.0272
     31 H           6.4626    1.4422    0.0000 H       1  UNL1        0.0346
     32 H           6.0641    2.1325    0.0000 H       1  UNL1        0.0346
     33 H           3.8670   -0.0010    0.0000 H       1  UNL1        0.0318
     34 H           3.6106   -0.7901    0.0000 H       1  UNL1        0.0318
     35 H           2.5374    1.3380    0.0000 H       1  UNL1        0.0567
     36 H           3.2276    0.9394    0.0000 H       1  UNL1        0.0567
     37 H           1.7091    0.6351    0.0000 H       1  UNL1        0.0308
     38 H           2.1109   -0.0547    0.0000 H       1  UNL1        0.0308
     39 H           3.8736   -1.3920    0.0000 H       1  UNL1        0.0787
     40 H           1.7842    1.8827    0.0000 H       1  UNL1        0.0577
     41 H           7.2354    0.2486    0.0000 H       1  UNL1        0.0535
     42 H           7.0489    1.3061    0.0000 H       1  UNL1        0.0535
     43 H           2.0000    2.4160    0.0000 H       1  UNL1        0.2094
     44 H           2.5338   -1.7964    0.0000 H       1  UNL1        0.0653
     45 H           4.7969   -3.4406    0.0000 H       1  UNL1        0.1033
     46 H           1.9995   -3.4406    0.0000 H       1  UNL1        0.1029
@<TRIPOS>BOND
     1     1    10    1
     2     1    21    1
     3     2    18    1
     4     2    19    1
     5     3    16    1
     6     3    43    1
     7     4    18    2
     8     5    21    2
     9     6    25   ar
    10     6    26   ar
    11     7     8    1
    12     7    10    1
    13     7    14    1
    14     7    16    1
    15     8     9    1
    16     8    11    1
    17     8    27    1
    18     9    13    1
    19     9    15    1
    20     9    18    1
    21    10    12    1
    22    10    28    1
    23    11    17    1
    24    11    29    1
    25    11    30    1
    26    12    13    1
    27    12    31    1
    28    12    32    1
    29    13    22    2
    30    14    20    2
    31    14    21    1
    32    15    19    1
    33    15    33    1
    34    15    34    1
    35    16    35    1
    36    16    36    1
    37    17    20    1
    38    17    37    1
    39    17    38    1
    40    19    23    1
    41    19    39    1
    42    20    40    1
    43    22    41    1
    44    22    42    1
    45    23    24   ar
    46    23    25   ar
    47    24    26   ar
    48    24    44    1
    49    25    45    1
    50    26    46    1
