@<TRIPOS>MOLECULE
IMPHY010301
 30 29 0 0 0
SMALL
GASTEIGER

@<TRIPOS>ATOM
      1 O           5.4641    0.0000    0.0000 O.3     1  UNL1       -0.4643
      2 O           4.5981   -1.5000    0.0000 O.2     1  UNL1       -0.2509
      3 C           3.7320    0.0000    0.0000 C.3     1  UNL1        0.0447
      4 C           2.8660   -0.5000    0.0000 C.3     1  UNL1       -0.0458
      5 C           7.1962    0.0000    0.0000 C.3     1  UNL1       -0.0003
      6 C           6.3301   -0.5000    0.0000 C.3     1  UNL1        0.0959
      7 C           4.5981   -0.5000    0.0000 C.2     1  UNL1        0.3071
      8 C           8.0622   -0.5000    0.0000 C.2     1  UNL1       -0.0847
      9 C           2.0000    0.0000    0.0000 C.3     1  UNL1       -0.0648
     10 C           8.9282    1.0000    0.0000 C.3     1  UNL1       -0.0376
     11 C           8.9282   -0.0000    0.0000 C.2     1  UNL1       -0.0881
     12 C           9.7942    1.5000    0.0000 C.3     1  UNL1       -0.0618
     13 H           4.1306    0.4749    0.0000 H       1  UNL1        0.0377
     14 H           3.3335    0.4749    0.0000 H       1  UNL1        0.0377
     15 H           2.4675   -0.9749    0.0000 H       1  UNL1        0.0268
     16 H           3.2646   -0.9749    0.0000 H       1  UNL1        0.0268
     17 H           7.5947    0.4749    0.0000 H       1  UNL1        0.0340
     18 H           6.7976    0.4749    0.0000 H       1  UNL1        0.0340
     19 H           5.9316   -0.9749    0.0000 H       1  UNL1        0.0700
     20 H           6.7287   -0.9749    0.0000 H       1  UNL1        0.0700
     21 H           8.0622   -1.1200    0.0000 H       1  UNL1        0.0570
     22 H           2.3100    0.5369    0.0000 H       1  UNL1        0.0230
     23 H           1.4631    0.3100    0.0000 H       1  UNL1        0.0230
     24 H           1.6900   -0.5369    0.0000 H       1  UNL1        0.0230
     25 H           8.7162    1.5826    0.0000 H       1  UNL1        0.0305
     26 H           8.3176    0.8923    0.0000 H       1  UNL1        0.0305
     27 H           9.4651   -0.3100    0.0000 H       1  UNL1        0.0569
     28 H          10.1042    0.9631    0.0000 H       1  UNL1        0.0233
     29 H          10.3312    1.8100    0.0000 H       1  UNL1        0.0233
     30 H           9.4842    2.0369    0.0000 H       1  UNL1        0.0233
@<TRIPOS>BOND
     1     1     6    1
     2     1     7    1
     3     2     7    2
     4     3     4    1
     5     3     7    1
     6     3    13    1
     7     3    14    1
     8     4     9    1
     9     4    15    1
    10     4    16    1
    11     5     6    1
    12     5     8    1
    13     5    17    1
    14     5    18    1
    15     6    19    1
    16     6    20    1
    17     8    11    2
    18     8    21    1
    19     9    22    1
    20     9    23    1
    21     9    24    1
    22    10    11    1
    23    10    12    1
    24    10    25    1
    25    10    26    1
    26    11    27    1
    27    12    28    1
    28    12    29    1
    29    12    30    1
