@<TRIPOS>MOLECULE
IMPHY009927
 74 78 0 0 0
SMALL
GASTEIGER

@<TRIPOS>ATOM
      1 O           6.8671   -2.7857    0.0000 O.3     1  UNL1       -0.3400
      2 O           5.1350   -2.7857    0.0000 O.3     1  UNL1       -0.3405
      3 O           6.8671    0.2143    0.0000 O.3     1  UNL1       -0.3313
      4 O           5.1350   -1.7857    0.0000 O.3     1  UNL1       -0.3865
      5 O           8.5991   -1.7857    0.0000 O.3     1  UNL1       -0.3829
      6 O           8.5991    0.2143    0.0000 O.3     1  UNL1       -0.4515
      7 O           6.8671   -4.7857    0.0000 O.3     1  UNL1       -0.3841
      8 O           5.1350   -5.7857    0.0000 O.3     1  UNL1       -0.3864
      9 O           3.4030   -4.7857    0.0000 O.3     1  UNL1       -0.3865
     10 O           5.1350    1.2143    0.0000 O.3     1  UNL1       -0.3924
     11 O           2.5369   -3.2857    0.0000 O.3     1  UNL1       -0.3924
     12 O           9.4651    2.7143    0.0000 O.2     1  UNL1       -0.1997
     13 O           5.9629    2.7112    0.0000 O.3     1  UNL1       -0.5057
     14 O           7.7210    5.7836    0.0000 O.3     1  UNL1       -0.5063
     15 O          12.9292    1.7143    0.0000 O.3     1  UNL1       -0.5033
     16 O          12.9292   -0.2857    0.0000 O.3     1  UNL1       -0.5033
     17 C           6.8671   -1.7857    0.0000 C.3     1  UNL1        0.1217
     18 C           6.0010   -1.2857    0.0000 C.3     1  UNL1        0.1123
     19 C           7.7331   -1.2857    0.0000 C.3     1  UNL1        0.1458
     20 C           6.0010   -3.2857    0.0000 C.3     1  UNL1        0.1884
     21 C           6.0010   -0.2857    0.0000 C.3     1  UNL1        0.1140
     22 C           6.0010   -4.2857    0.0000 C.3     1  UNL1        0.1341
     23 C           5.1350   -4.7857    0.0000 C.3     1  UNL1        0.1141
     24 C           4.2690   -4.2857    0.0000 C.3     1  UNL1        0.1119
     25 C           7.7331   -0.2857    0.0000 C.3     1  UNL1        0.2312
     26 C           4.2690   -3.2857    0.0000 C.3     1  UNL1        0.1130
     27 C           5.1350    0.2143    0.0000 C.3     1  UNL1        0.0731
     28 C           3.4030   -2.7857    0.0000 C.3     1  UNL1        0.0730
     29 C           8.5991    1.2143    0.0000 C.ar    1  UNL1        0.2288
     30 C           9.4651    1.7143    0.0000 C.ar    1  UNL1        0.4046
     31 C           7.7331    1.7143    0.0000 C.ar    1  UNL1        0.0093
     32 C           7.7331    2.7143    0.0000 C.ar    1  UNL1        0.1241
     33 C          10.3312    1.2143    0.0000 C.ar    1  UNL1        0.0865
     34 C           8.5991    3.2143    0.0000 C.ar    1  UNL1        0.3708
     35 C           6.8231    3.2212    0.0000 C.ar    1  UNL1        0.1366
     36 C           8.6152    4.2558    0.0000 C.ar    1  UNL1        0.0847
     37 C          11.1972    1.7143    0.0000 C.ar    1  UNL1       -0.0003
     38 C          10.3312    0.2143    0.0000 C.ar    1  UNL1       -0.0418
     39 C           6.8151    4.2628    0.0000 C.ar    1  UNL1        0.0225
     40 C           7.7171    4.7836    0.0000 C.ar    1  UNL1        0.1293
     41 C          12.0632    1.2143    0.0000 C.ar    1  UNL1        0.1591
     42 C          11.1972   -0.2857    0.0000 C.ar    1  UNL1       -0.0157
     43 C          12.0632    0.2143    0.0000 C.ar    1  UNL1        0.1583
     44 H           7.4040   -2.0957    0.0000 H       1  UNL1        0.0652
     45 H           6.0010   -1.9057    0.0000 H       1  UNL1        0.0647
     46 H           8.2700   -0.9757    0.0000 H       1  UNL1        0.0683
     47 H           6.0010   -2.6657    0.0000 H       1  UNL1        0.0938
     48 H           6.0010    0.3343    0.0000 H       1  UNL1        0.0647
     49 H           6.0010   -4.9057    0.0000 H       1  UNL1        0.0671
     50 H           4.5981   -5.0957    0.0000 H       1  UNL1        0.0648
     51 H           3.7320   -3.9757    0.0000 H       1  UNL1        0.0647
     52 H           7.7331    0.3343    0.0000 H       1  UNL1        0.1084
     53 H           4.2690   -2.6657    0.0000 H       1  UNL1        0.0647
     54 H           4.5244    0.3220    0.0000 H       1  UNL1        0.0584
     55 H           4.9230   -0.3683    0.0000 H       1  UNL1        0.0584
     56 H           3.8015   -2.3107    0.0000 H       1  UNL1        0.0584
     57 H           3.0044   -2.3107    0.0000 H       1  UNL1        0.0584
     58 H           4.5981   -1.4757    0.0000 H       1  UNL1        0.2100
     59 H           9.1360   -1.4757    0.0000 H       1  UNL1        0.2102
     60 H           6.8671   -5.4057    0.0000 H       1  UNL1        0.2101
     61 H           4.5981   -6.0957    0.0000 H       1  UNL1        0.2100
     62 H           3.4030   -5.4057    0.0000 H       1  UNL1        0.2100
     63 H           4.5981    1.5243    0.0000 H       1  UNL1        0.2095
     64 H           2.0000   -2.9757    0.0000 H       1  UNL1        0.2095
     65 H           7.1962    1.4043    0.0000 H       1  UNL1        0.0667
     66 H           9.1557    4.5596    0.0000 H       1  UNL1        0.0749
     67 H          11.1972    2.3343    0.0000 H       1  UNL1        0.0664
     68 H           9.7942   -0.0957    0.0000 H       1  UNL1        0.0628
     69 H           6.2769    4.5707    0.0000 H       1  UNL1        0.0691
     70 H          11.1972   -0.9057    0.0000 H       1  UNL1        0.0655
     71 H           5.4224    3.0150    0.0000 H       1  UNL1        0.2922
     72 H           7.1852    6.0957    0.0000 H       1  UNL1        0.2921
     73 H          12.9292    2.3343    0.0000 H       1  UNL1        0.2923
     74 H          13.4662    0.0243    0.0000 H       1  UNL1        0.2923
@<TRIPOS>UNITY_ATOM_ATTR
12 1
charge 1
@<TRIPOS>BOND
     1     1    17    1
     2    20     1    1
     3     2    20    1
     4     2    26    1
     5     3    21    1
     6     3    25    1
     7    18     4    1
     8     4    58    1
     9     5    19    1
    10     5    59    1
    11    25     6    1
    12     6    29    1
    13    22     7    1
    14     7    60    1
    15     8    23    1
    16     8    61    1
    17    24     9    1
    18     9    62    1
    19    10    27    1
    20    10    63    1
    21    11    28    1
    22    11    64    1
    23    12    30   ar
    24    12    34   ar
    25    13    35    1
    26    13    71    1
    27    14    40    1
    28    14    72    1
    29    15    41    1
    30    15    73    1
    31    16    43    1
    32    16    74    1
    33    17    18    1
    34    17    19    1
    35    17    44    1
    36    18    21    1
    37    18    45    1
    38    19    25    1
    39    19    46    1
    40    20    22    1
    41    20    47    1
    42    21    27    1
    43    21    48    1
    44    22    23    1
    45    22    49    1
    46    23    24    1
    47    23    50    1
    48    24    26    1
    49    24    51    1
    50    25    52    1
    51    26    28    1
    52    26    53    1
    53    27    54    1
    54    27    55    1
    55    28    56    1
    56    28    57    1
    57    29    30   ar
    58    29    31   ar
    59    30    33    1
    60    31    32   ar
    61    31    65    1
    62    32    34   ar
    63    32    35   ar
    64    33    37   ar
    65    33    38   ar
    66    34    36   ar
    67    35    39   ar
    68    36    40   ar
    69    36    66    1
    70    37    41   ar
    71    37    67    1
    72    38    42   ar
    73    38    68    1
    74    39    40   ar
    75    39    69    1
    76    41    43   ar
    77    42    43   ar
    78    42    70    1
