@<TRIPOS>MOLECULE
IMPHY006154
 19 19 0 0 0
SMALL
GASTEIGER

@<TRIPOS>ATOM
      1 O           3.7320    1.9050    0.0000 O.3     1  UNL1       -0.4645
      2 O           2.8660   -2.5950    0.0000 O.3     1  UNL1       -0.5068
      3 O           2.0000    1.9050    0.0000 O.2     1  UNL1       -0.2450
      4 C           2.8660    0.4050    0.0000 C.ar    1  UNL1        0.0592
      5 C           3.7320   -0.0950    0.0000 C.ar    1  UNL1       -0.0443
      6 C           2.0000   -0.0950    0.0000 C.ar    1  UNL1       -0.0443
      7 C           3.7320   -1.0950    0.0000 C.ar    1  UNL1       -0.0194
      8 C           2.0000   -1.0950    0.0000 C.ar    1  UNL1       -0.0194
      9 C           2.8660   -1.5950    0.0000 C.ar    1  UNL1        0.1169
     10 C           2.8660    1.4050    0.0000 C.2     1  UNL1        0.3389
     11 C           3.7320    2.9050    0.0000 C.3     1  UNL1        0.0820
     12 H           4.2690    0.2150    0.0000 H       1  UNL1        0.0627
     13 H           1.4631    0.2150    0.0000 H       1  UNL1        0.0627
     14 H           4.2690   -1.4050    0.0000 H       1  UNL1        0.0654
     15 H           1.4631   -1.4050    0.0000 H       1  UNL1        0.0654
     16 H           4.3520    2.9050    0.0000 H       1  UNL1        0.0661
     17 H           3.7320    3.5250    0.0000 H       1  UNL1        0.0661
     18 H           3.1120    2.9050    0.0000 H       1  UNL1        0.0661
     19 H           2.3291   -2.9050    0.0000 H       1  UNL1        0.2921
@<TRIPOS>BOND
     1     1    10    1
     2     1    11    1
     3     2     9    1
     4     2    19    1
     5     3    10    2
     6     4     5   ar
     7     4     6   ar
     8     4    10    1
     9     5     7   ar
    10     5    12    1
    11     6     8   ar
    12     6    13    1
    13     7     9   ar
    14     7    14    1
    15     8     9   ar
    16     8    15    1
    17    11    16    1
    18    11    17    1
    19    11    18    1
