@<TRIPOS>MOLECULE
IMPHY012733
 44 45 0 0 0
SMALL
GASTEIGER

@<TRIPOS>ATOM
      1 O           3.5836   -0.2767    0.0000 O.3     1  UNL1       -0.4532
      2 O           5.3958    2.5280    0.0000 O.3     1  UNL1       -0.3907
      3 O           2.0000    0.5280    0.0000 O.2     1  UNL1       -0.2453
      4 O           4.8958   -1.3379    0.0000 O.3     1  UNL1       -0.4604
      5 O           5.7619   -2.8380    0.0000 O.2     1  UNL1       -0.2512
      6 C           4.5298    1.0280    0.0000 C.3     1  UNL1        0.0573
      7 C           4.5298    0.0280    0.0000 C.3     1  UNL1        0.1311
      8 C           5.3958    1.5280    0.0000 C.3     1  UNL1        0.0697
      9 C           6.2619    1.0280    0.0000 C.3     1  UNL1       -0.0017
     10 C           3.5836    1.3328    0.0000 C.2     1  UNL1        0.0389
     11 C           5.3958   -0.4720    0.0000 C.2     1  UNL1       -0.0443
     12 C           6.2619    0.0280    0.0000 C.2     1  UNL1       -0.0341
     13 C           3.0000    0.5280    0.0000 C.2     1  UNL1        0.3356
     14 C           5.3958   -1.4720    0.0000 C.2     1  UNL1       -0.0728
     15 C           6.2619   -1.9720    0.0000 C.3     1  UNL1       -0.0284
     16 C           7.1279   -1.4720    0.0000 C.3     1  UNL1       -0.0307
     17 C           7.1279   -0.4720    0.0000 C.2     1  UNL1       -0.0812
     18 C           5.7619   -0.8380    0.0000 C.3     1  UNL1        0.1137
     19 C           3.2729    2.2833    0.0000 C.2     1  UNL1       -0.0882
     20 C           4.4110   -1.6456    0.0000 C.3     1  UNL1       -0.0437
     21 C           4.8958   -2.3380    0.0000 C.2     1  UNL1        0.3042
     22 C           4.0298   -2.8380    0.0000 C.3     1  UNL1        0.0332
     23 H           4.4399    1.8732    0.0000 H       1  UNL1        0.0416
     24 H           4.4399   -0.8172    0.0000 H       1  UNL1        0.0786
     25 H           5.9328    1.8380    0.0000 H       1  UNL1        0.0604
     26 H           6.8725    0.9204    0.0000 H       1  UNL1        0.0336
     27 H           6.4739    1.6106    0.0000 H       1  UNL1        0.0336
     28 H           5.6079    0.1106    0.0000 H       1  UNL1        0.0608
     29 H           5.8633   -2.4469    0.0000 H       1  UNL1        0.0313
     30 H           6.6604   -2.4469    0.0000 H       1  UNL1        0.0313
     31 H           7.3400   -2.0546    0.0000 H       1  UNL1        0.0310
     32 H           7.7385   -1.3643    0.0000 H       1  UNL1        0.0310
     33 H           7.6648   -0.1620    0.0000 H       1  UNL1        0.0573
     34 H           5.9328    2.8380    0.0000 H       1  UNL1        0.2098
     35 H           5.8695   -1.4486    0.0000 H       1  UNL1        0.0745
     36 H           5.3235   -0.3996    0.0000 H       1  UNL1        0.0745
     37 H           3.6870    2.7447    0.0000 H       1  UNL1        0.0540
     38 H           2.6663    2.4111    0.0000 H       1  UNL1        0.0540
     39 H           4.3034   -1.0350    0.0000 H       1  UNL1        0.0274
     40 H           3.8005   -1.7532    0.0000 H       1  UNL1        0.0274
     41 H           4.5187   -2.2562    0.0000 H       1  UNL1        0.0274
     42 H           3.7198   -2.3011    0.0000 H       1  UNL1        0.0342
     43 H           3.4929   -3.1480    0.0000 H       1  UNL1        0.0342
     44 H           4.3398   -3.3749    0.0000 H       1  UNL1        0.0342
@<TRIPOS>BOND
     1     1     7    1
     2     1    13    1
     3     8     2    1
     4     2    34    1
     5     3    13    2
     6     4    18    1
     7     4    21    1
     8     5    21    2
     9     6     7    1
    10     6     8    1
    11     6    10    1
    12     6    23    1
    13     7    11    1
    14     7    24    1
    15     8     9    1
    16     8    25    1
    17     9    12    1
    18     9    26    1
    19     9    27    1
    20    10    13    1
    21    10    19    2
    22    11    14    2
    23    11    28    1
    24    12    17    2
    25    12    18    1
    26    14    15    1
    27    14    20    1
    28    15    16    1
    29    15    29    1
    30    15    30    1
    31    16    17    1
    32    16    31    1
    33    16    32    1
    34    17    33    1
    35    18    35    1
    36    18    36    1
    37    19    37    1
    38    19    38    1
    39    20    39    1
    40    20    40    1
    41    20    41    1
    42    21    22    1
    43    22    42    1
    44    22    43    1
    45    22    44    1
