@<TRIPOS>MOLECULE
IMPHY009346
 26 25 0 0 0
SMALL
GASTEIGER

@<TRIPOS>ATOM
      1 O           5.4641    1.0000    0.0000 O.3     1  UNL1       -0.4615
      2 O           6.3301   -0.5000    0.0000 O.2     1  UNL1       -0.2512
      3 C           4.5981    0.5000    0.0000 C.3     1  UNL1        0.1028
      4 C           3.7320    1.0000    0.0000 C.3     1  UNL1       -0.0159
      5 C           4.5981   -0.5000    0.0000 C.3     1  UNL1       -0.0185
      6 C           2.8660    0.5000    0.0000 C.3     1  UNL1       -0.0526
      7 C           3.7320   -1.0000    0.0000 C.3     1  UNL1       -0.0619
      8 C           2.0000    1.0000    0.0000 C.3     1  UNL1       -0.0652
      9 C           6.3301    0.5000    0.0000 C.2     1  UNL1        0.3042
     10 C           7.1962    1.0000    0.0000 C.3     1  UNL1        0.0332
     11 H           4.5981    1.1200    0.0000 H       1  UNL1        0.0733
     12 H           4.1306    1.4750    0.0000 H       1  UNL1        0.0301
     13 H           3.3335    1.4750    0.0000 H       1  UNL1        0.0301
     14 H           4.8101   -1.0826    0.0000 H       1  UNL1        0.0298
     15 H           5.2087   -0.3923    0.0000 H       1  UNL1        0.0298
     16 H           2.4675    0.0251    0.0000 H       1  UNL1        0.0264
     17 H           3.2646    0.0251    0.0000 H       1  UNL1        0.0264
     18 H           3.4220   -0.4631    0.0000 H       1  UNL1        0.0231
     19 H           3.1951   -1.3100    0.0000 H       1  UNL1        0.0231
     20 H           4.0420   -1.5369    0.0000 H       1  UNL1        0.0231
     21 H           2.3100    1.5369    0.0000 H       1  UNL1        0.0230
     22 H           1.4631    1.3100    0.0000 H       1  UNL1        0.0230
     23 H           1.6900    0.4631    0.0000 H       1  UNL1        0.0230
     24 H           7.5062    0.4631    0.0000 H       1  UNL1        0.0342
     25 H           7.7331    1.3100    0.0000 H       1  UNL1        0.0342
     26 H           6.8862    1.5369    0.0000 H       1  UNL1        0.0342
@<TRIPOS>BOND
     1     1     3    1
     2     1     9    1
     3     2     9    2
     4     3     4    1
     5     3     5    1
     6     3    11    1
     7     4     6    1
     8     4    12    1
     9     4    13    1
    10     5     7    1
    11     5    14    1
    12     5    15    1
    13     6     8    1
    14     6    16    1
    15     6    17    1
    16     7    18    1
    17     7    19    1
    18     7    20    1
    19     8    21    1
    20     8    22    1
    21     8    23    1
    22     9    10    1
    23    10    24    1
    24    10    25    1
    25    10    26    1
