@<TRIPOS>MOLECULE
IMPHY006980
 48 52 0 0 0
SMALL
GASTEIGER

@<TRIPOS>ATOM
      1 O           6.6710    0.1643    0.0000 O.3     1  UNL1       -0.3374
      2 O           8.4031    0.1643    0.0000 O.3     1  UNL1       -0.3632
      3 O           9.4302   -1.5175    0.0000 O.3     1  UNL1       -0.4521
      4 O           9.4431   -3.1939    0.0000 O.3     1  UNL1       -0.4526
      5 O           2.9731    2.4912    0.0000 O.3     1  UNL1       -0.4914
      6 O           4.9487    2.9505    0.0000 O.3     1  UNL1       -0.5033
      7 N           5.0341   -1.9420    0.0000 N.3     1  UNL1       -0.2956
      8 C           5.8050   -1.3357    0.0000 C.3     1  UNL1        0.0665
      9 C           5.8050   -0.3357    0.0000 C.3     1  UNL1        0.1069
     10 C           6.6710   -1.8357    0.0000 C.ar    1  UNL1       -0.0158
     11 C           5.0341    0.2707    0.0000 C.ar    1  UNL1       -0.0101
     12 C           4.0788   -1.7199    0.0000 C.3     1  UNL1        0.0033
     13 C           7.5370   -1.3357    0.0000 C.ar    1  UNL1        0.0578
     14 C           3.6544   -0.8357    0.0000 C.3     1  UNL1       -0.0144
     15 C           4.0788    0.0486    0.0000 C.ar    1  UNL1       -0.0368
     16 C           7.5370   -0.3357    0.0000 C.3     1  UNL1        0.1873
     17 C           6.6550   -2.8772    0.0000 C.ar    1  UNL1       -0.0529
     18 C           5.2513   -2.9181    0.0000 C.3     1  UNL1       -0.0121
     19 C           8.4470   -1.8425    0.0000 C.ar    1  UNL1        0.1745
     20 C           5.3463    1.2434    0.0000 C.ar    1  UNL1       -0.0106
     21 C           3.3694    0.7838    0.0000 C.ar    1  UNL1       -0.0127
     22 C           8.4551   -2.8841    0.0000 C.ar    1  UNL1        0.1667
     23 C           7.5530   -3.4049    0.0000 C.ar    1  UNL1       -0.0158
     24 C           4.6542    1.9949    0.0000 C.ar    1  UNL1        0.1588
     25 C           3.6591    1.7635    0.0000 C.ar    1  UNL1        0.1615
     26 C          10.0445   -2.3510    0.0000 C.3     1  UNL1        0.2332
     27 C           2.0000    2.2610    0.0000 C.3     1  UNL1        0.0790
     28 H           5.8492   -1.9541    0.0000 H       1  UNL1        0.0541
     29 H           6.3419   -0.6457    0.0000 H       1  UNL1        0.0667
     30 H           3.4740   -1.8565    0.0000 H       1  UNL1        0.0430
     31 H           4.0768   -2.3399    0.0000 H       1  UNL1        0.0430
     32 H           3.1695   -0.4493    0.0000 H       1  UNL1        0.0326
     33 H           3.1695   -1.2220    0.0000 H       1  UNL1        0.0326
     34 H           7.5370    0.2843    0.0000 H       1  UNL1        0.0964
     35 H           6.1145   -3.1809    0.0000 H       1  UNL1        0.0622
     36 H           4.6461   -3.0528    0.0000 H       1  UNL1        0.0391
     37 H           5.3860   -3.5233    0.0000 H       1  UNL1        0.0391
     38 H           5.8565   -2.7834    0.0000 H       1  UNL1        0.0391
     39 H           5.9518    1.3768    0.0000 H       1  UNL1        0.0659
     40 H           2.7672    0.6364    0.0000 H       1  UNL1        0.0658
     41 H           7.5506   -4.0249    0.0000 H       1  UNL1        0.0655
     42 H           8.4031    0.7843    0.0000 H       1  UNL1        0.2128
     43 H          10.5086   -2.7622    0.0000 H       1  UNL1        0.1166
     44 H          10.5022   -1.9328    0.0000 H       1  UNL1        0.1166
     45 H           4.5270    3.4049    0.0000 H       1  UNL1        0.2923
     46 H           1.8573    2.8643    0.0000 H       1  UNL1        0.0660
     47 H           1.3966    2.1183    0.0000 H       1  UNL1        0.0660
     48 H           2.1427    1.6576    0.0000 H       1  UNL1        0.0660
@<TRIPOS>BOND
     1     1     9    1
     2     1    16    1
     3     2    16    1
     4     2    42    1
     5     3    19    1
     6     3    26    1
     7     4    22    1
     8     4    26    1
     9     5    25    1
    10     5    27    1
    11     6    24    1
    12     6    45    1
    13     7     8    1
    14     7    12    1
    15     7    18    1
    16     8     9    1
    17     8    10    1
    18     8    28    1
    19     9    11    1
    20     9    29    1
    21    10    13   ar
    22    10    17   ar
    23    11    15   ar
    24    11    20   ar
    25    12    14    1
    26    12    30    1
    27    12    31    1
    28    13    16    1
    29    13    19   ar
    30    14    15    1
    31    14    32    1
    32    14    33    1
    33    15    21   ar
    34    16    34    1
    35    17    23   ar
    36    17    35    1
    37    18    36    1
    38    18    37    1
    39    18    38    1
    40    19    22   ar
    41    20    24   ar
    42    20    39    1
    43    21    25   ar
    44    21    40    1
    45    22    23   ar
    46    23    41    1
    47    24    25   ar
    48    26    43    1
    49    26    44    1
    50    27    46    1
    51    27    47    1
    52    27    48    1
