@<TRIPOS>MOLECULE
IMPHY013742
 25 25 0 0 0
SMALL
GASTEIGER

@<TRIPOS>ATOM
      1 O           2.5369   -2.1550    0.0000 O.3     1  UNL1       -0.5033
      2 O           6.0010    2.8450    0.0000 O.3     1  UNL1       -0.4795
      3 O           4.2690   -3.1550    0.0000 O.3     1  UNL1       -0.5033
      4 OXT         4.2690    2.8450    0.0000 O.2     1  UNL1       -0.2492
      5 N           6.0010    0.8450    0.0000 N.3     1  UNL1       -0.3181
      6 C           4.2690    0.8450    0.0000 C.3     1  UNL1       -0.0019
      7 CA          5.1350    1.3450    0.0000 C.3     1  UNL1        0.1072
      8 C           4.2690   -0.1550    0.0000 C.ar    1  UNL1       -0.0417
      9 C           3.4030   -0.6550    0.0000 C.ar    1  UNL1       -0.0133
     10 C           5.1350   -0.6550    0.0000 C.ar    1  UNL1       -0.0548
     11 C           3.4030   -1.6550    0.0000 C.ar    1  UNL1        0.1585
     12 C           5.1350    2.3450    0.0000 C.2     1  UNL1        0.3220
     13 C           5.1350   -1.6550    0.0000 C.ar    1  UNL1       -0.0163
     14 C           4.2690   -2.1550    0.0000 C.ar    1  UNL1        0.1582
     15 H           4.0569    1.4276    0.0000 H       1  UNL1        0.0334
     16 H           3.6584    0.7373    0.0000 H       1  UNL1        0.0334
     17 HA          5.1350    0.7250    0.0000 H       1  UNL1        0.0577
     18 H           2.8660   -0.3450    0.0000 H       1  UNL1        0.0658
     19 H           5.6720   -0.3450    0.0000 H       1  UNL1        0.0621
     20 H           5.6720   -1.9650    0.0000 H       1  UNL1        0.0655
     21 H1          6.5380    1.1550    0.0000 H       1  UNL1        0.1190
     22 H2          6.0010    0.2250    0.0000 H       1  UNL1        0.1190
     23 H           2.0000   -1.8450    0.0000 H       1  UNL1        0.2923
     24 H           6.0010    3.4650    0.0000 H       1  UNL1        0.2951
     25 H           4.8059   -3.4650    0.0000 H       1  UNL1        0.2923
@<TRIPOS>BOND
     1     1    11    1
     2     1    23    1
     3     2    12    1
     4     2    24    1
     5     3    14    1
     6     3    25    1
     7     4    12    2
     8     7     5    1
     9     5    21    1
    10     5    22    1
    11     6     7    1
    12     6     8    1
    13     6    15    1
    14     6    16    1
    15     7    12    1
    16     7    17    1
    17     8     9   ar
    18     8    10   ar
    19     9    11   ar
    20     9    18    1
    21    10    13   ar
    22    10    19    1
    23    11    14   ar
    24    13    14   ar
    25    13    20    1
