@<TRIPOS>MOLECULE
IMPHY008133
 66 67 0 0 0
SMALL
GASTEIGER

@<TRIPOS>ATOM
      1 O           7.2764    0.8047    0.0000 O.3     1  UNL1       -0.4535
      2 O           4.4793    1.1737    0.0000 O.3     1  UNL1       -0.4540
      3 O           3.7320   -1.0000    0.0000 O.3     1  UNL1       -0.4583
      4 O           5.4641   -2.0000    0.0000 O.3     1  UNL1       -0.3874
      5 O           6.1332    2.7431    0.0000 O.3     1  UNL1       -0.3775
      6 O           4.5981    3.5000    0.0000 O.2     1  UNL1       -0.2942
      7 O           8.8600    0.0000    0.0000 O.2     1  UNL1       -0.2453
      8 O           3.3712   -0.4087    0.0000 O.2     1  UNL1       -0.2505
      9 O           4.5981   -2.5000    0.0000 O.2     1  UNL1       -0.2505
     10 C           6.3301   -0.5000    0.0000 C.3     1  UNL1        0.0604
     11 C           6.3301    0.5000    0.0000 C.3     1  UNL1        0.1526
     12 C           5.4641   -1.0000    0.0000 C.3     1  UNL1        0.1028
     13 C           5.4641    1.0000    0.0000 C.3     1  UNL1        0.1753
     14 C           4.5981   -0.5000    0.0000 C.3     1  UNL1        0.1320
     15 C           4.5981    0.5000    0.0000 C.3     1  UNL1       -0.0038
     16 C           5.4641    2.0000    0.0000 C.3     1  UNL1        0.1607
     17 C           7.2764   -0.8047    0.0000 C.2     1  UNL1        0.0388
     18 C           3.7320    1.0000    0.0000 C.3     1  UNL1       -0.0402
     19 C           3.7320    2.0000    0.0000 C.3     1  UNL1        0.0092
     20 C           4.5981    2.5000    0.0000 C.2     1  UNL1        0.1681
     21 C           7.8600    0.0000    0.0000 C.2     1  UNL1        0.3355
     22 C           5.4641    0.0000    0.0000 C.3     1  UNL1       -0.0590
     23 C           6.4422    2.2079    0.0000 C.3     1  UNL1       -0.0254
     24 C           7.5870   -1.7552    0.0000 C.2     1  UNL1       -0.0882
     25 C           3.7132    0.5309    0.0000 C.2     1  UNL1        0.3101
     26 C           3.7320   -2.0000    0.0000 C.2     1  UNL1        0.3100
     27 C           2.7735    0.8731    0.0000 C.3     1  UNL1        0.0508
     28 C           2.8660   -2.5000    0.0000 C.3     1  UNL1        0.0508
     29 C           2.0075    0.2303    0.0000 C.3     1  UNL1       -0.0525
     30 C           2.6000    1.8579    0.0000 C.3     1  UNL1       -0.0525
     31 C           2.8660   -3.5000    0.0000 C.3     1  UNL1       -0.0525
     32 C           2.0000   -2.0000    0.0000 C.3     1  UNL1       -0.0525
     33 H           6.4201   -1.3452    0.0000 H       1  UNL1        0.0415
     34 H           6.4201    1.3452    0.0000 H       1  UNL1        0.0780
     35 H           6.0010   -1.3100    0.0000 H       1  UNL1        0.0638
     36 H           5.2520    0.4174    0.0000 H       1  UNL1        0.0806
     37 H           4.5981   -1.1200    0.0000 H       1  UNL1        0.0763
     38 H           4.9081    1.0369    0.0000 H       1  UNL1        0.0335
     39 H           3.1215    1.1077    0.0000 H       1  UNL1        0.0273
     40 H           3.5200    0.4174    0.0000 H       1  UNL1        0.0273
     41 H           3.5200    2.5826    0.0000 H       1  UNL1        0.0343
     42 H           3.1215    1.8923    0.0000 H       1  UNL1        0.0343
     43 H           5.1541   -0.5369    0.0000 H       1  UNL1        0.0234
     44 H           6.0010   -0.3100    0.0000 H       1  UNL1        0.0234
     45 H           5.7741    0.5369    0.0000 H       1  UNL1        0.0234
     46 H           6.5712    1.6015    0.0000 H       1  UNL1        0.0263
     47 H           7.0487    2.3368    0.0000 H       1  UNL1        0.0263
     48 H           6.3133    2.8144    0.0000 H       1  UNL1        0.0263
     49 H           6.0010   -2.3100    0.0000 H       1  UNL1        0.2100
     50 H           5.9416    3.3328    0.0000 H       1  UNL1        0.2109
     51 H           7.1730   -2.2167    0.0000 H       1  UNL1        0.0540
     52 H           8.1937   -1.8831    0.0000 H       1  UNL1        0.0540
     53 H           3.2485    1.2715    0.0000 H       1  UNL1        0.0408
     54 H           2.8660   -1.8800    0.0000 H       1  UNL1        0.0408
     55 H           1.6090    0.7052    0.0000 H       1  UNL1        0.0237
     56 H           1.5325   -0.1682    0.0000 H       1  UNL1        0.0237
     57 H           2.4060   -0.2447    0.0000 H       1  UNL1        0.0237
     58 H           3.2106    1.9655    0.0000 H       1  UNL1        0.0237
     59 H           2.4924    2.4684    0.0000 H       1  UNL1        0.0237
     60 H           1.9894    1.7502    0.0000 H       1  UNL1        0.0237
     61 H           2.2460   -3.5000    0.0000 H       1  UNL1        0.0237
     62 H           2.3100   -1.4631    0.0000 H       1  UNL1        0.0237
     63 H           1.4631   -1.6900    0.0000 H       1  UNL1        0.0237
     64 H           1.6900   -2.5369    0.0000 H       1  UNL1        0.0237
     65 H           2.8660   -4.1200    0.0000 H       1  UNL1        0.0237
     66 H           3.4860   -3.5000    0.0000 H       1  UNL1        0.0237
@<TRIPOS>BOND
     1     1    11    1
     2     1    21    1
     3    13     2    1
     4     2    25    1
     5    14     3    1
     6     3    26    1
     7    12     4    1
     8     4    49    1
     9    16     5    1
    10     5    50    1
    11     6    20    2
    12     7    21    2
    13     8    25    2
    14     9    26    2
    15    10    11    1
    16    10    12    1
    17    10    17    1
    18    10    33    1
    19    11    13    1
    20    11    34    1
    21    12    14    1
    22    12    35    1
    23    13    16    1
    24    13    36    1
    25    14    15    1
    26    14    37    1
    27    15    18    1
    28    15    22    1
    29    15    38    1
    30    16    20    1
    31    16    23    1
    32    17    21    1
    33    17    24    2
    34    18    19    1
    35    18    39    1
    36    18    40    1
    37    19    20    1
    38    19    41    1
    39    19    42    1
    40    22    43    1
    41    22    44    1
    42    22    45    1
    43    23    46    1
    44    23    47    1
    45    23    48    1
    46    24    51    1
    47    24    52    1
    48    25    27    1
    49    26    28    1
    50    27    29    1
    51    27    30    1
    52    27    53    1
    53    28    31    1
    54    28    32    1
    55    28    54    1
    56    29    55    1
    57    29    56    1
    58    29    57    1
    59    30    58    1
    60    30    59    1
    61    30    60    1
    62    31    61    1
    63    31    65    1
    64    31    66    1
    65    32    62    1
    66    32    63    1
    67    32    64    1
