@<TRIPOS>MOLECULE
IMPHY008917
 65 68 0 0 0
SMALL
GASTEIGER

@<TRIPOS>ATOM
      1 O           6.0010    0.4050    0.0000 O.2     1  UNL1       -0.4702
      2 O           6.8671   -1.0950    0.0000 O.3     1  UNL1       -0.3096
      3 O          10.2629    0.9050    0.0000 O.3     1  UNL1       -0.4576
      4 O           5.1350   -1.0950    0.0000 O.3     1  UNL1       -0.3404
      5 O           6.0010    3.4050    0.0000 O.3     1  UNL1       -0.4646
      6 O           6.8671   -3.0950    0.0000 O.3     1  UNL1       -0.3841
      7 O           5.1350   -4.0950    0.0000 O.3     1  UNL1       -0.3864
      8 O           7.7331    3.4050    0.0000 O.2     1  UNL1       -0.2452
      9 O           3.4030   -3.0950    0.0000 O.3     1  UNL1       -0.3865
     10 O          10.2629    2.6370    0.0000 O.2     1  UNL1       -0.2450
     11 O           2.5369   -1.5950    0.0000 O.3     1  UNL1       -0.3924
     12 C           7.7331    0.4050    0.0000 C.3     1  UNL1        0.0348
     13 C           7.7331    1.4050    0.0000 C.3     1  UNL1        0.0060
     14 C           8.6793    0.1003    0.0000 C.3     1  UNL1        0.0024
     15 C           9.2629    0.9050    0.0000 C.3     1  UNL1        0.1070
     16 C           8.6793    1.7097    0.0000 C.3     1  UNL1       -0.0078
     17 C           6.8671   -0.0950    0.0000 C.3     1  UNL1        0.2072
     18 C           6.8671    1.9050    0.0000 C.2     1  UNL1        0.0744
     19 C           8.9900   -0.8503    0.0000 C.3     1  UNL1       -0.0586
     20 C           6.0010    1.4050    0.0000 C.2     1  UNL1        0.0981
     21 C           6.0010   -1.5950    0.0000 C.3     1  UNL1        0.1918
     22 C           6.0010   -2.5950    0.0000 C.3     1  UNL1        0.1342
     23 C           6.8671    2.9050    0.0000 C.2     1  UNL1        0.3381
     24 C           5.1350   -3.0950    0.0000 C.3     1  UNL1        0.1141
     25 C           4.2690   -2.5950    0.0000 C.3     1  UNL1        0.1119
     26 C           4.2690   -1.5950    0.0000 C.3     1  UNL1        0.1130
     27 C          10.7629    1.7710    0.0000 C.2     1  UNL1        0.3395
     28 C           3.4030   -1.0950    0.0000 C.3     1  UNL1        0.0730
     29 C          11.7629    1.7710    0.0000 C.ar    1  UNL1        0.0590
     30 C           6.0010    4.4050    0.0000 C.3     1  UNL1        0.0820
     31 C          12.2629    0.9050    0.0000 C.ar    1  UNL1       -0.0478
     32 C          12.2629    2.6370    0.0000 C.ar    1  UNL1       -0.0478
     33 C          13.2629    0.9050    0.0000 C.ar    1  UNL1       -0.0610
     34 C          13.2629    2.6370    0.0000 C.ar    1  UNL1       -0.0610
     35 C          13.7629    1.7710    0.0000 C.ar    1  UNL1       -0.0617
     36 H           7.8230   -0.4402    0.0000 H       1  UNL1        0.0371
     37 H           7.8230    2.2502    0.0000 H       1  UNL1        0.0358
     38 H           8.2418   -0.3391    0.0000 H       1  UNL1        0.0339
     39 H           9.5446    1.4573    0.0000 H       1  UNL1        0.0737
     40 H           9.2167    2.0190    0.0000 H       1  UNL1        0.0307
     41 H           8.4283    2.2766    0.0000 H       1  UNL1        0.0307
     42 H           7.4040   -0.4050    0.0000 H       1  UNL1        0.1059
     43 H           8.4006   -1.0429    0.0000 H       1  UNL1        0.0234
     44 H           9.1826   -1.4396    0.0000 H       1  UNL1        0.0234
     45 H           9.5793   -0.6576    0.0000 H       1  UNL1        0.0234
     46 H           5.4641    1.7150    0.0000 H       1  UNL1        0.1029
     47 H           6.0010   -0.9750    0.0000 H       1  UNL1        0.0939
     48 H           6.0010   -3.2150    0.0000 H       1  UNL1        0.0671
     49 H           4.5981   -3.4050    0.0000 H       1  UNL1        0.0648
     50 H           3.7320   -2.2850    0.0000 H       1  UNL1        0.0647
     51 H           4.2690   -0.9750    0.0000 H       1  UNL1        0.0647
     52 H           3.8015   -0.6201    0.0000 H       1  UNL1        0.0584
     53 H           3.0044   -0.6201    0.0000 H       1  UNL1        0.0584
     54 H           6.8671   -3.7150    0.0000 H       1  UNL1        0.2101
     55 H           4.5981   -4.4050    0.0000 H       1  UNL1        0.2100
     56 H           3.4030   -3.7150    0.0000 H       1  UNL1        0.2100
     57 H           6.6210    4.4050    0.0000 H       1  UNL1        0.0661
     58 H           6.0010    5.0250    0.0000 H       1  UNL1        0.0661
     59 H           5.3810    4.4050    0.0000 H       1  UNL1        0.0661
     60 H           2.0000   -1.2850    0.0000 H       1  UNL1        0.2095
     61 H          11.9529    0.3681    0.0000 H       1  UNL1        0.0626
     62 H          11.9529    3.1740    0.0000 H       1  UNL1        0.0626
     63 H          13.5729    0.3681    0.0000 H       1  UNL1        0.0618
     64 H          13.5729    3.1740    0.0000 H       1  UNL1        0.0618
     65 H          14.3829    1.7710    0.0000 H       1  UNL1        0.0618
@<TRIPOS>BOND
     1     1    17    1
     2     1    20    1
     3    17     2    1
     4    21     2    1
     5    15     3    1
     6     3    27    1
     7     4    21    1
     8     4    26    1
     9     5    23    1
    10     5    30    1
    11    22     6    1
    12     6    54    1
    13    24     7    1
    14     7    55    1
    15     8    23    2
    16    25     9    1
    17     9    56    1
    18    10    27    2
    19    11    28    1
    20    11    60    1
    21    12    13    1
    22    12    14    1
    23    12    17    1
    24    12    36    1
    25    13    16    1
    26    13    18    1
    27    13    37    1
    28    14    15    1
    29    14    19    1
    30    14    38    1
    31    15    16    1
    32    15    39    1
    33    16    40    1
    34    16    41    1
    35    17    42    1
    36    18    20    2
    37    18    23    1
    38    19    43    1
    39    19    44    1
    40    19    45    1
    41    20    46    1
    42    21    22    1
    43    21    47    1
    44    22    24    1
    45    22    48    1
    46    24    25    1
    47    24    49    1
    48    25    26    1
    49    25    50    1
    50    26    28    1
    51    26    51    1
    52    27    29    1
    53    28    52    1
    54    28    53    1
    55    29    31   ar
    56    29    32   ar
    57    30    57    1
    58    30    58    1
    59    30    59    1
    60    31    33   ar
    61    31    61    1
    62    32    34   ar
    63    32    62    1
    64    33    35   ar
    65    33    63    1
    66    34    35   ar
    67    34    64    1
    68    35    65    1
