@<TRIPOS>MOLECULE
IMPHY005249
 132 140 0 0 0
SMALL
GASTEIGER

@<TRIPOS>ATOM
      1 O           9.1562    5.5403    0.0000 O.3     1  UNL1       -0.3424
      2 O           7.3837    6.4351    0.0000 O.3     1  UNL1       -0.3172
      3 O          10.0205    6.2173    0.0000 O.3     1  UNL1       -0.3865
      4 O           7.7331   -2.7038    0.0000 O.3     1  UNL1       -0.3451
      5 O           6.3615    7.8333    0.0000 O.3     1  UNL1       -0.3666
      6 O           6.0010   -2.7038    0.0000 O.3     1  UNL1       -0.3405
      7 O           7.7331   -4.7038    0.0000 O.3     1  UNL1       -0.3378
      8 O           6.0010   -5.7038    0.0000 O.3     1  UNL1       -0.3401
      9 O           4.2690   -4.7038    0.0000 O.3     1  UNL1       -0.3865
     10 O           8.5991   -3.2038    0.0000 O.3     1  UNL1       -0.3431
     11 O           4.2690   -1.7038    0.0000 O.3     1  UNL1       -0.3924
     12 O           4.2690   -5.7038    0.0000 O.3     1  UNL1       -0.3461
     13 O           9.4651   -5.7038    0.0000 O.3     1  UNL1       -0.3841
     14 O          11.1972   -4.7038    0.0000 O.3     1  UNL1       -0.3864
     15 O           6.0010   -7.7038    0.0000 O.3     1  UNL1       -0.3841
     16 O          11.1972   -2.7038    0.0000 O.3     1  UNL1       -0.3866
     17 O           4.2690   -8.7038    0.0000 O.3     1  UNL1       -0.3864
     18 O           2.5369   -7.7038    0.0000 O.3     1  UNL1       -0.3869
     19 C           7.7624    3.4931    0.0000 C.3     1  UNL1       -0.0233
     20 C           8.6303    2.9965    0.0000 C.3     1  UNL1       -0.0295
     21 C           7.9678    4.4657    0.0000 C.3     1  UNL1       -0.0014
     22 C           8.6342    1.9965    0.0000 C.3     1  UNL1       -0.0306
     23 C           8.9561    4.5726    0.0000 C.3     1  UNL1        0.0661
     24 C           7.7701    1.4931    0.0000 C.3     1  UNL1       -0.0285
     25 C           9.3647    3.6664    0.0000 C.3     1  UNL1       -0.0226
     26 C           6.8983    2.9898    0.0000 C.3     1  UNL1       -0.0467
     27 C           7.5655    5.3683    0.0000 C.3     1  UNL1        0.0187
     28 C           6.9021    1.9898    0.0000 C.3     1  UNL1       -0.0486
     29 C           7.7580    0.4516    0.0000 C.3     1  UNL1       -0.0078
     30 C           8.2985    6.0311    0.0000 C.3     1  UNL1        0.2019
     31 C           6.8944    3.9898    0.0000 C.3     1  UNL1       -0.0590
     32 C           9.5461    1.4931    0.0000 C.3     1  UNL1       -0.0311
     33 C           8.6581   -0.0727    0.0000 C.2     1  UNL1       -0.0648
     34 C           6.8081   -0.0727    0.0000 C.3     1  UNL1       -0.0413
     35 C           9.1057    6.6213    0.0000 C.3     1  UNL1        0.1097
     36 C           6.5871    5.5750    0.0000 C.3     1  UNL1       -0.0571
     37 C           9.5581    0.4516    0.0000 C.2     1  UNL1       -0.0839
     38 C           6.8939    0.9549    0.0000 C.3     1  UNL1       -0.0556
     39 C           8.6706   -1.1576    0.0000 C.3     1  UNL1       -0.0047
     40 C           6.7956   -1.1576    0.0000 C.3     1  UNL1       -0.0254
     41 C           8.9982    7.6155    0.0000 C.3     1  UNL1       -0.0146
     42 C           7.7331   -1.7038    0.0000 C.3     1  UNL1        0.0655
     43 C           7.2762    7.4293    0.0000 C.3     1  UNL1        0.1622
     44 C           8.0835    8.0195    0.0000 C.3     1  UNL1        0.0098
     45 C           7.9760    9.0138    0.0000 C.3     1  UNL1       -0.0577
     46 C           6.8671   -3.2038    0.0000 C.3     1  UNL1        0.1886
     47 C           6.8671   -4.2038    0.0000 C.3     1  UNL1        0.1410
     48 C           6.0010   -4.7038    0.0000 C.3     1  UNL1        0.1209
     49 C           5.1350   -3.2038    0.0000 C.3     1  UNL1        0.1130
     50 C           5.1350   -4.2038    0.0000 C.3     1  UNL1        0.1123
     51 C           4.2690   -2.7038    0.0000 C.3     1  UNL1        0.0730
     52 C           8.5991   -4.2038    0.0000 C.3     1  UNL1        0.1884
     53 C           5.1350   -6.2038    0.0000 C.3     1  UNL1        0.1880
     54 C           9.4651   -4.7038    0.0000 C.3     1  UNL1        0.1341
     55 C          10.3312   -4.2038    0.0000 C.3     1  UNL1        0.1140
     56 C           5.1350   -7.2038    0.0000 C.3     1  UNL1        0.1341
     57 C           9.4651   -2.7038    0.0000 C.3     1  UNL1        0.0873
     58 C          10.3312   -3.2038    0.0000 C.3     1  UNL1        0.1095
     59 C           4.2690   -7.7038    0.0000 C.3     1  UNL1        0.1137
     60 C           3.4030   -6.2038    0.0000 C.3     1  UNL1        0.0792
     61 C           3.4030   -7.2038    0.0000 C.3     1  UNL1        0.1069
     62 C           9.4651   -1.7038    0.0000 C.3     1  UNL1       -0.0361
     63 H           9.4086    2.6548    0.0000 H       1  UNL1        0.0310
     64 H           7.1225    4.3762    0.0000 H       1  UNL1        0.0335
     65 H           9.3653    2.4300    0.0000 H       1  UNL1        0.0310
     66 H           9.8010    4.6658    0.0000 H       1  UNL1        0.0600
     67 H           8.5045    1.0653    0.0000 H       1  UNL1        0.0312
     68 H           9.7321    3.1670    0.0000 H       1  UNL1        0.0293
     69 H           9.9000    3.9792    0.0000 H       1  UNL1        0.0293
     70 H           6.6840    3.5716    0.0000 H       1  UNL1        0.0271
     71 H           6.2881    2.8798    0.0000 H       1  UNL1        0.0271
     72 H           7.4040    5.9669    0.0000 H       1  UNL1        0.0354
     73 H           6.2911    2.0951    0.0000 H       1  UNL1        0.0268
     74 H           6.6923    1.4064    0.0000 H       1  UNL1        0.0268
     75 H           7.2023    4.5279    0.0000 H       1  UNL1        0.0235
     76 H           6.3563    4.2977    0.0000 H       1  UNL1        0.0235
     77 H           6.5865    3.4517    0.0000 H       1  UNL1        0.0235
     78 H          10.1581    1.3941    0.0000 H       1  UNL1        0.0310
     79 H           9.7484    2.0792    0.0000 H       1  UNL1        0.0310
     80 H           6.6058    0.5134    0.0000 H       1  UNL1        0.0274
     81 H           6.1961   -0.1717    0.0000 H       1  UNL1        0.0274
     82 H           9.1724    6.0049    0.0000 H       1  UNL1        0.0647
     83 H           6.7152    6.1816    0.0000 H       1  UNL1        0.0234
     84 H           5.9805    5.7032    0.0000 H       1  UNL1        0.0234
     85 H           6.4590    4.9684    0.0000 H       1  UNL1        0.0234
     86 H          10.0975    0.1457    0.0000 H       1  UNL1        0.0572
     87 H           7.2060    1.4906    0.0000 H       1  UNL1        0.0238
     88 H           6.3582    1.2670    0.0000 H       1  UNL1        0.0238
     89 H           6.5818    0.4192    0.0000 H       1  UNL1        0.0238
     90 H           8.8864   -1.7389    0.0000 H       1  UNL1        0.0335
     91 H           9.2802   -1.0445    0.0000 H       1  UNL1        0.0335
     92 H           6.1860   -1.0445    0.0000 H       1  UNL1        0.0290
     93 H           6.5798   -1.7389    0.0000 H       1  UNL1        0.0290
     94 H           9.6168    7.5741    0.0000 H       1  UNL1        0.0296
     95 H           9.1464    8.2176    0.0000 H       1  UNL1        0.0296
     96 H           8.2706   -2.0127    0.0000 H       1  UNL1        0.0600
     97 H           7.2096    8.0458    0.0000 H       1  UNL1        0.0911
     98 H           8.5840    8.3855    0.0000 H       1  UNL1        0.0348
     99 H          10.5210    6.5832    0.0000 H       1  UNL1        0.2100
    100 H           8.5924    9.0804    0.0000 H       1  UNL1        0.0234
    101 H           7.9093    9.6302    0.0000 H       1  UNL1        0.0234
    102 H           7.3596    8.9471    0.0000 H       1  UNL1        0.0234
    103 H           6.2948    8.4498    0.0000 H       1  UNL1        0.2125
    104 H           7.4040   -3.5138    0.0000 H       1  UNL1        0.0938
    105 H           6.8671   -4.8238    0.0000 H       1  UNL1        0.0675
    106 H           5.4641   -5.0138    0.0000 H       1  UNL1        0.0651
    107 H           5.1350   -2.5838    0.0000 H       1  UNL1        0.0647
    108 H           4.5981   -3.8938    0.0000 H       1  UNL1        0.0647
    109 H           3.6584   -2.5961    0.0000 H       1  UNL1        0.0584
    110 H           4.0569   -3.2864    0.0000 H       1  UNL1        0.0584
    111 H           8.5991   -4.8238    0.0000 H       1  UNL1        0.0938
    112 H           3.7320   -4.3938    0.0000 H       1  UNL1        0.2100
    113 H           5.1350   -5.5838    0.0000 H       1  UNL1        0.0937
    114 H          10.0021   -5.0138    0.0000 H       1  UNL1        0.0671
    115 H          10.8681   -3.8938    0.0000 H       1  UNL1        0.0648
    116 H           3.7320   -1.3938    0.0000 H       1  UNL1        0.2095
    117 H           5.1350   -7.8238    0.0000 H       1  UNL1        0.0671
    118 H           8.9282   -2.3938    0.0000 H       1  UNL1        0.0621
    119 H          10.3312   -2.5838    0.0000 H       1  UNL1        0.0646
    120 H           3.7320   -8.0138    0.0000 H       1  UNL1        0.0647
    121 H          10.0021   -6.0138    0.0000 H       1  UNL1        0.2101
    122 H           3.1909   -5.6211    0.0000 H       1  UNL1        0.0587
    123 H           2.7924   -6.3114    0.0000 H       1  UNL1        0.0587
    124 H           2.8660   -6.8938    0.0000 H       1  UNL1        0.0643
    125 H          10.0851   -1.7038    0.0000 H       1  UNL1        0.0255
    126 H           9.4651   -1.0838    0.0000 H       1  UNL1        0.0255
    127 H           8.8451   -1.7038    0.0000 H       1  UNL1        0.0255
    128 H          11.7341   -4.3938    0.0000 H       1  UNL1        0.2100
    129 H           6.0010   -8.3238    0.0000 H       1  UNL1        0.2101
    130 H          11.7341   -3.0138    0.0000 H       1  UNL1        0.2100
    131 H           3.7320   -9.0138    0.0000 H       1  UNL1        0.2100
    132 H           2.0000   -7.3938    0.0000 H       1  UNL1        0.2100
@<TRIPOS>BOND
     1     1    23    1
     2    30     1    1
     3     2    30    1
     4     2    43    1
     5    35     3    1
     6     3    99    1
     7    42     4    1
     8    46     4    1
     9    43     5    1
    10     5   103    1
    11     6    46    1
    12     6    49    1
    13    47     7    1
    14    52     7    1
    15    48     8    1
    16    53     8    1
    17    50     9    1
    18     9   112    1
    19    10    52    1
    20    10    57    1
    21    11    51    1
    22    11   116    1
    23    12    53    1
    24    12    60    1
    25    54    13    1
    26    13   121    1
    27    55    14    1
    28    14   128    1
    29    56    15    1
    30    15   129    1
    31    58    16    1
    32    16   130    1
    33    59    17    1
    34    17   131    1
    35    61    18    1
    36    18   132    1
    37    19    20    1
    38    19    21    1
    39    19    26    1
    40    19    31    1
    41    20    22    1
    42    20    25    1
    43    20    63    1
    44    21    23    1
    45    21    27    1
    46    21    64    1
    47    22    24    1
    48    22    32    1
    49    22    65    1
    50    23    25    1
    51    23    66    1
    52    24    28    1
    53    24    29    1
    54    24    67    1
    55    25    68    1
    56    25    69    1
    57    26    28    1
    58    26    70    1
    59    26    71    1
    60    27    30    1
    61    27    36    1
    62    27    72    1
    63    28    73    1
    64    28    74    1
    65    29    33    1
    66    29    34    1
    67    29    38    1
    68    30    35    1
    69    31    75    1
    70    31    76    1
    71    31    77    1
    72    32    37    1
    73    32    78    1
    74    32    79    1
    75    33    37    2
    76    33    39    1
    77    34    40    1
    78    34    80    1
    79    34    81    1
    80    35    41    1
    81    35    82    1
    82    36    83    1
    83    36    84    1
    84    36    85    1
    85    37    86    1
    86    38    87    1
    87    38    88    1
    88    38    89    1
    89    39    42    1
    90    39    90    1
    91    39    91    1
    92    40    42    1
    93    40    92    1
    94    40    93    1
    95    41    44    1
    96    41    94    1
    97    41    95    1
    98    42    96    1
    99    43    44    1
   100    43    97    1
   101    44    45    1
   102    44    98    1
   103    45   100    1
   104    45   101    1
   105    45   102    1
   106    46    47    1
   107    46   104    1
   108    47    48    1
   109    47   105    1
   110    48    50    1
   111    48   106    1
   112    49    50    1
   113    49    51    1
   114    49   107    1
   115    50   108    1
   116    51   109    1
   117    51   110    1
   118    52    54    1
   119    52   111    1
   120    53    56    1
   121    53   113    1
   122    54    55    1
   123    54   114    1
   124    55    58    1
   125    55   115    1
   126    56    59    1
   127    56   117    1
   128    57    58    1
   129    57    62    1
   130    57   118    1
   131    58   119    1
   132    59    61    1
   133    59   120    1
   134    60    61    1
   135    60   122    1
   136    60   123    1
   137    61   124    1
   138    62   125    1
   139    62   126    1
   140    62   127    1
