@<TRIPOS>MOLECULE
IMPHY010135
 60 62 0 0 0
SMALL
GASTEIGER

@<TRIPOS>ATOM
      1 O           8.1301   -2.0152    0.0000 O.2     1  UNL1       -0.4542
      2 O          11.6602    0.0090    0.0000 O.3     1  UNL1       -0.4912
      3 O          11.6104    1.0394    0.0000 O.3     1  UNL1       -0.3872
      4 O           6.3817    1.0194    0.0000 O.3     1  UNL1       -0.5055
      5 O           8.1301    0.9848    0.0000 O.2     1  UNL1       -0.2863
      6 O           4.6000   -2.0393    0.0000 O.3     1  UNL1       -0.4946
      7 O          11.6602   -2.0393    0.0000 O.3     1  UNL1       -0.5032
      8 C           9.8901    0.0195    0.0000 C.ar    1  UNL1        0.0150
      9 C           8.9961   -0.5152    0.0000 C.ar    1  UNL1        0.0717
     10 C           9.8785    1.0194    0.0000 C.3     1  UNL1        0.0067
     11 C           7.2641   -0.5152    0.0000 C.ar    1  UNL1        0.1064
     12 C           8.9961   -1.5152    0.0000 C.ar    1  UNL1        0.1432
     13 C           8.1301   -0.0152    0.0000 C.ar    1  UNL1        0.2041
     14 C          10.7387    1.5294    0.0000 C.3     1  UNL1        0.0799
     15 C           7.2641   -1.5152    0.0000 C.ar    1  UNL1        0.1463
     16 C          10.7961   -0.4944    0.0000 C.ar    1  UNL1        0.1654
     17 C           6.3701    0.0195    0.0000 C.ar    1  UNL1        0.1381
     18 C           5.4641   -0.4944    0.0000 C.ar    1  UNL1        0.0402
     19 C           9.8901   -2.0498    0.0000 C.ar    1  UNL1        0.0265
     20 C          10.7961   -1.5360    0.0000 C.ar    1  UNL1        0.1623
     21 C           6.3701   -2.0498    0.0000 C.ar    1  UNL1        0.0236
     22 C           5.4641   -1.5360    0.0000 C.ar    1  UNL1        0.1305
     23 C           4.6000    0.0090    0.0000 C.3     1  UNL1       -0.0023
     24 C          10.7271    2.5293    0.0000 C.2     1  UNL1       -0.0513
     25 C           3.7320   -0.4877    0.0000 C.2     1  UNL1       -0.0807
     26 C          11.5873    3.0393    0.0000 C.3     1  UNL1       -0.0416
     27 C           9.8554    3.0193    0.0000 C.2     1  UNL1       -0.0973
     28 C           2.8680    0.0157    0.0000 C.2     1  UNL1       -0.0793
     29 C          12.5282   -0.4877    0.0000 C.3     1  UNL1        0.0790
     30 C           4.6038   -3.0393    0.0000 C.3     1  UNL1        0.0788
     31 C           2.0000   -0.4810    0.0000 C.3     1  UNL1       -0.0440
     32 C           2.8718    1.0156    0.0000 C.3     1  UNL1       -0.0440
     33 H           9.6597    1.5995    0.0000 H       1  UNL1        0.0343
     34 H           9.2692    0.9047    0.0000 H       1  UNL1        0.0343
     35 H          11.2720    1.8456    0.0000 H       1  UNL1        0.0643
     36 H           9.8829   -2.6698    0.0000 H       1  UNL1        0.0692
     37 H           6.3773   -2.6698    0.0000 H       1  UNL1        0.0691
     38 H           5.0003    0.4824    0.0000 H       1  UNL1        0.0358
     39 H           4.2033    0.4855    0.0000 H       1  UNL1        0.0358
     40 H           3.7296   -1.1077    0.0000 H       1  UNL1        0.0575
     41 H          12.1438    1.3556    0.0000 H       1  UNL1        0.2102
     42 H          11.9035    2.5060    0.0000 H       1  UNL1        0.0275
     43 H          12.1206    3.3555    0.0000 H       1  UNL1        0.0275
     44 H          11.2711    3.5726    0.0000 H       1  UNL1        0.0275
     45 H           5.8484    1.3356    0.0000 H       1  UNL1        0.2922
     46 H           9.8482    3.6392    0.0000 H       1  UNL1        0.0535
     47 H           9.3221    2.7031    0.0000 H       1  UNL1        0.0535
     48 H          11.6578   -2.6593    0.0000 H       1  UNL1        0.2923
     49 H          12.2203   -1.0258    0.0000 H       1  UNL1        0.0660
     50 H          13.0663   -0.7956    0.0000 H       1  UNL1        0.0660
     51 H          12.8361    0.0504    0.0000 H       1  UNL1        0.0660
     52 H           3.9838   -3.0417    0.0000 H       1  UNL1        0.0660
     53 H           4.6062   -3.6593    0.0000 H       1  UNL1        0.0660
     54 H           5.2238   -3.0369    0.0000 H       1  UNL1        0.0660
     55 H           3.4918    1.0133    0.0000 H       1  UNL1        0.0274
     56 H           2.8742    1.6356    0.0000 H       1  UNL1        0.0274
     57 H           1.6921    0.0571    0.0000 H       1  UNL1        0.0274
     58 H           1.4619   -0.7889    0.0000 H       1  UNL1        0.0274
     59 H           2.3079   -1.0191    0.0000 H       1  UNL1        0.0274
     60 H           2.2518    1.0180    0.0000 H       1  UNL1        0.0274
@<TRIPOS>BOND
     1     1    12   ar
     2     1    15   ar
     3     2    16    1
     4     2    29    1
     5     3    14    1
     6     3    41    1
     7     4    17    1
     8     4    45    1
     9     5    13    2
    10     6    22    1
    11     6    30    1
    12     7    20    1
    13     7    48    1
    14     8     9   ar
    15     8    10    1
    16     8    16   ar
    17     9    12   ar
    18     9    13   ar
    19    10    14    1
    20    10    33    1
    21    10    34    1
    22    11    13   ar
    23    11    15   ar
    24    11    17   ar
    25    12    19   ar
    26    14    24    1
    27    14    35    1
    28    15    21   ar
    29    16    20   ar
    30    17    18   ar
    31    18    22   ar
    32    18    23    1
    33    19    20   ar
    34    19    36    1
    35    21    22   ar
    36    21    37    1
    37    23    25    1
    38    23    38    1
    39    23    39    1
    40    24    26    1
    41    24    27    2
    42    25    28    2
    43    25    40    1
    44    26    42    1
    45    26    43    1
    46    26    44    1
    47    27    46    1
    48    27    47    1
    49    28    31    1
    50    28    32    1
    51    29    49    1
    52    29    50    1
    53    29    51    1
    54    30    52    1
    55    30    53    1
    56    30    54    1
    57    31    57    1
    58    31    58    1
    59    31    59    1
    60    32    55    1
    61    32    56    1
    62    32    60    1
