@<TRIPOS>MOLECULE
IMPHY016793
 29 28 0 0 0
SMALL
GASTEIGER

@<TRIPOS>ATOM
      1 O           5.4641    0.2500    0.0000 O.3     1  UNL1       -0.4567
      2 O           8.0622   -0.2500    0.0000 O.3     1  UNL1       -0.4567
      3 O           6.3301   -1.2500    0.0000 O.2     1  UNL1       -0.2376
      4 O           7.1962    1.2500    0.0000 O.2     1  UNL1       -0.2376
      5 C           3.7320    0.2500    0.0000 C.3     1  UNL1       -0.0188
      6 C           2.8660   -0.2500    0.0000 C.3     1  UNL1       -0.0528
      7 C           4.5981   -0.2500    0.0000 C.3     1  UNL1        0.0930
      8 C           2.0000    0.2500    0.0000 C.3     1  UNL1       -0.0652
      9 C           9.7942   -0.2500    0.0000 C.3     1  UNL1       -0.0214
     10 C           8.9282    0.2500    0.0000 C.3     1  UNL1        0.0928
     11 C          10.6603    0.2500    0.0000 C.3     1  UNL1       -0.0622
     12 C           6.3301   -0.2500    0.0000 C.2     1  UNL1        0.4173
     13 C           7.1962    0.2500    0.0000 C.2     1  UNL1        0.4173
     14 H           4.1306    0.7249    0.0000 H       1  UNL1        0.0298
     15 H           3.3335    0.7249    0.0000 H       1  UNL1        0.0298
     16 H           2.4675   -0.7249    0.0000 H       1  UNL1        0.0264
     17 H           3.2646   -0.7249    0.0000 H       1  UNL1        0.0264
     18 H           4.1996   -0.7249    0.0000 H       1  UNL1        0.0697
     19 H           4.9966   -0.7249    0.0000 H       1  UNL1        0.0697
     20 H           2.3100    0.7869    0.0000 H       1  UNL1        0.0230
     21 H           1.4631    0.5600    0.0000 H       1  UNL1        0.0230
     22 H           1.6900   -0.2869    0.0000 H       1  UNL1        0.0230
     23 H           9.3957   -0.7249    0.0000 H       1  UNL1        0.0295
     24 H          10.1928   -0.7249    0.0000 H       1  UNL1        0.0295
     25 H           9.3267    0.7249    0.0000 H       1  UNL1        0.0697
     26 H           8.5297    0.7249    0.0000 H       1  UNL1        0.0697
     27 H          10.9703   -0.2869    0.0000 H       1  UNL1        0.0231
     28 H          11.1972    0.5600    0.0000 H       1  UNL1        0.0231
     29 H          10.3503    0.7869    0.0000 H       1  UNL1        0.0231
@<TRIPOS>BOND
     1     1     7    1
     2     1    12    1
     3     2    10    1
     4     2    13    1
     5     3    12    2
     6     4    13    2
     7     5     6    1
     8     5     7    1
     9     5    14    1
    10     5    15    1
    11     6     8    1
    12     6    16    1
    13     6    17    1
    14     7    18    1
    15     7    19    1
    16     8    20    1
    17     8    21    1
    18     8    22    1
    19     9    10    1
    20     9    11    1
    21     9    23    1
    22     9    24    1
    23    10    25    1
    24    10    26    1
    25    11    27    1
    26    11    28    1
    27    11    29    1
    28    12    13    1
