@<TRIPOS>MOLECULE
IMPHY004683
 34 36 0 0 0
SMALL
GASTEIGER

@<TRIPOS>ATOM
      1 O           6.0290   -0.2699    0.0000 O.2     1  UNL1       -0.4470
      2 O           7.7991    1.7889    0.0000 O.3     1  UNL1       -0.5007
      3 O           4.2690    2.7648    0.0000 O.3     1  UNL1       -0.5027
      4 O           4.2690   -1.2352    0.0000 O.3     1  UNL1       -0.5008
      5 O           2.5369    1.7648    0.0000 O.3     1  UNL1       -0.5008
      6 O           2.5369   -0.2352    0.0000 O.3     1  UNL1       -0.5007
      7 O           6.0174    2.7994    0.0000 O.2     1  UNL1       -0.2830
      8 O           8.6555   -2.7627    0.0000 O.3     1  UNL1       -0.5033
      9 O          10.3914   -1.7694    0.0000 O.3     1  UNL1       -0.5033
     10 C           5.1350    1.2648    0.0000 C.ar    1  UNL1        0.1165
     11 C           5.1350    0.2648    0.0000 C.ar    1  UNL1        0.1882
     12 C           6.9350    0.2440    0.0000 C.ar    1  UNL1        0.1809
     13 C           6.0290    1.7994    0.0000 C.ar    1  UNL1        0.2381
     14 C           6.9350    1.2856    0.0000 C.ar    1  UNL1        0.2082
     15 C           4.2690    1.7648    0.0000 C.ar    1  UNL1        0.1770
     16 C           7.7991   -0.2594    0.0000 C.ar    1  UNL1        0.0247
     17 C           4.2690   -0.2352    0.0000 C.ar    1  UNL1        0.2062
     18 C           3.4030    1.2648    0.0000 C.ar    1  UNL1        0.2053
     19 C           3.4030    0.2648    0.0000 C.ar    1  UNL1        0.2081
     20 C           7.7953   -1.2594    0.0000 C.ar    1  UNL1       -0.0057
     21 C           8.6671    0.2373    0.0000 C.ar    1  UNL1       -0.0473
     22 C           8.6594   -1.7627    0.0000 C.ar    1  UNL1        0.1589
     23 C           9.5312   -0.2661    0.0000 C.ar    1  UNL1       -0.0159
     24 C           9.5273   -1.2660    0.0000 C.ar    1  UNL1        0.1583
     25 H           7.2571   -1.5673    0.0000 H       1  UNL1        0.0662
     26 H           8.6694    0.8573    0.0000 H       1  UNL1        0.0626
     27 H          10.0693    0.0419    0.0000 H       1  UNL1        0.0655
     28 H           7.7967    2.4089    0.0000 H       1  UNL1        0.2924
     29 H           3.7320    3.0748    0.0000 H       1  UNL1        0.2923
     30 H           3.7320   -1.5452    0.0000 H       1  UNL1        0.2924
     31 H           2.0000    1.4548    0.0000 H       1  UNL1        0.2924
     32 H           2.0000    0.0748    0.0000 H       1  UNL1        0.2924
     33 H           9.1912   -3.0748    0.0000 H       1  UNL1        0.2923
     34 H          10.9295   -1.4615    0.0000 H       1  UNL1        0.2923
@<TRIPOS>BOND
     1     1    11   ar
     2     1    12   ar
     3     2    14    1
     4     2    28    1
     5     3    15    1
     6     3    29    1
     7     4    17    1
     8     4    30    1
     9     5    18    1
    10     5    31    1
    11     6    19    1
    12     6    32    1
    13     7    13    2
    14     8    22    1
    15     8    33    1
    16     9    24    1
    17     9    34    1
    18    10    11   ar
    19    10    13   ar
    20    10    15   ar
    21    11    17   ar
    22    12    14   ar
    23    12    16    1
    24    13    14   ar
    25    15    18   ar
    26    16    20   ar
    27    16    21   ar
    28    17    19   ar
    29    18    19   ar
    30    20    22   ar
    31    20    25    1
    32    21    23   ar
    33    21    26    1
    34    22    24   ar
    35    23    24   ar
    36    23    27    1
