@<TRIPOS>MOLECULE
IMPHY012771
 79 80 0 0 0
SMALL
GASTEIGER

@<TRIPOS>ATOM
      1 O          16.7224   -2.0000    0.0000 O.2     1  UNL1       -0.2869
      2 O          16.7224    2.0000    0.0000 O.2     1  UNL1       -0.2870
      3 C           6.3301   -1.0000    0.0000 C.3     1  UNL1       -0.0439
      4 C           7.1962   -0.5000    0.0000 C.3     1  UNL1       -0.0505
      5 C           9.7942   -1.0000    0.0000 C.3     1  UNL1       -0.0439
      6 C           8.0622   -1.0000    0.0000 C.3     1  UNL1       -0.0526
      7 C           8.9282   -0.5000    0.0000 C.3     1  UNL1       -0.0505
      8 C           5.4641   -0.5000    0.0000 C.3     1  UNL1       -0.0505
      9 C          10.6603   -0.5000    0.0000 C.3     1  UNL1       -0.0502
     10 C           4.5981   -1.0000    0.0000 C.3     1  UNL1       -0.0526
     11 C           3.7320   -0.5000    0.0000 C.3     1  UNL1       -0.0507
     12 C           6.3301   -2.0000    0.0000 C.3     1  UNL1       -0.0624
     13 C          11.5263   -1.0000    0.0000 C.3     1  UNL1       -0.0491
     14 C           9.7942   -2.0000    0.0000 C.3     1  UNL1       -0.0624
     15 C           2.8660   -1.0000    0.0000 C.3     1  UNL1       -0.0467
     16 C          12.3923   -0.5000    0.0000 C.3     1  UNL1       -0.0320
     17 C           2.0000   -0.5000    0.0000 C.3     1  UNL1       -0.0627
     18 C           2.8660   -2.0000    0.0000 C.3     1  UNL1       -0.0627
     19 C          13.2583   -1.0000    0.0000 C.2     1  UNL1       -0.0762
     20 C          14.1244   -0.5000    0.0000 C.2     1  UNL1       -0.0806
     21 C          13.2583   -2.0000    0.0000 C.3     1  UNL1       -0.0438
     22 C          14.9904   -1.0000    0.0000 C.3     1  UNL1       -0.0052
     23 C          15.8564   -0.5000    0.0000 C.2     1  UNL1        0.0102
     24 C          15.8564    0.5000    0.0000 C.2     1  UNL1        0.0039
     25 C          16.7224   -1.0000    0.0000 C.2     1  UNL1        0.1905
     26 C          17.5885   -0.5000    0.0000 C.ar    1  UNL1        0.0327
     27 C          17.5885    0.5000    0.0000 C.ar    1  UNL1        0.0327
     28 C          16.7224    1.0000    0.0000 C.2     1  UNL1        0.1900
     29 C          14.9904    1.0000    0.0000 C.3     1  UNL1       -0.0357
     30 C          18.4824   -1.0347    0.0000 C.ar    1  UNL1       -0.0502
     31 C          18.4824    1.0347    0.0000 C.ar    1  UNL1       -0.0502
     32 C          19.3885   -0.5208    0.0000 C.ar    1  UNL1       -0.0610
     33 C          19.3885    0.5208    0.0000 C.ar    1  UNL1       -0.0610
     34 H           6.8671   -1.3100    0.0000 H       1  UNL1        0.0298
     35 H           7.5947   -0.0251    0.0000 H       1  UNL1        0.0268
     36 H           6.7976   -0.0251    0.0000 H       1  UNL1        0.0268
     37 H           9.2573   -1.3100    0.0000 H       1  UNL1        0.0298
     38 H           7.6636   -1.4750    0.0000 H       1  UNL1        0.0265
     39 H           8.4607   -1.4750    0.0000 H       1  UNL1        0.0265
     40 H           9.3267   -0.0251    0.0000 H       1  UNL1        0.0268
     41 H           8.5297   -0.0251    0.0000 H       1  UNL1        0.0268
     42 H           5.8626   -0.0251    0.0000 H       1  UNL1        0.0268
     43 H           5.0656   -0.0251    0.0000 H       1  UNL1        0.0268
     44 H          11.0588   -0.0251    0.0000 H       1  UNL1        0.0268
     45 H          10.2617   -0.0251    0.0000 H       1  UNL1        0.0268
     46 H           4.1996   -1.4750    0.0000 H       1  UNL1        0.0265
     47 H           4.9966   -1.4750    0.0000 H       1  UNL1        0.0265
     48 H           4.1306   -0.0251    0.0000 H       1  UNL1        0.0268
     49 H           3.3335   -0.0251    0.0000 H       1  UNL1        0.0268
     50 H           5.7101   -2.0000    0.0000 H       1  UNL1        0.0232
     51 H           6.3301   -2.6200    0.0000 H       1  UNL1        0.0232
     52 H           6.9501   -2.0000    0.0000 H       1  UNL1        0.0232
     53 H          11.1278   -1.4750    0.0000 H       1  UNL1        0.0268
     54 H          11.9248   -1.4750    0.0000 H       1  UNL1        0.0268
     55 H           9.1742   -2.0000    0.0000 H       1  UNL1        0.0232
     56 H           9.7942   -2.6200    0.0000 H       1  UNL1        0.0232
     57 H          10.4142   -2.0000    0.0000 H       1  UNL1        0.0232
     58 H           2.8660   -0.3800    0.0000 H       1  UNL1        0.0295
     59 H          12.7908   -0.0251    0.0000 H       1  UNL1        0.0310
     60 H          11.9938   -0.0251    0.0000 H       1  UNL1        0.0310
     61 H           2.3100    0.0369    0.0000 H       1  UNL1        0.0232
     62 H           1.4631   -0.1900    0.0000 H       1  UNL1        0.0232
     63 H           1.6900   -1.0369    0.0000 H       1  UNL1        0.0232
     64 H           2.2460   -2.0000    0.0000 H       1  UNL1        0.0232
     65 H           2.8660   -2.6200    0.0000 H       1  UNL1        0.0232
     66 H           3.4860   -2.0000    0.0000 H       1  UNL1        0.0232
     67 H          14.1244    0.1200    0.0000 H       1  UNL1        0.0575
     68 H          12.6383   -2.0000    0.0000 H       1  UNL1        0.0274
     69 H          13.2583   -2.6200    0.0000 H       1  UNL1        0.0274
     70 H          13.8783   -2.0000    0.0000 H       1  UNL1        0.0274
     71 H          14.5919   -1.4750    0.0000 H       1  UNL1        0.0357
     72 H          15.3889   -1.4750    0.0000 H       1  UNL1        0.0357
     73 H          15.3004    1.5369    0.0000 H       1  UNL1        0.0279
     74 H          14.4534    1.3100    0.0000 H       1  UNL1        0.0279
     75 H          14.6804    0.4631    0.0000 H       1  UNL1        0.0279
     76 H          18.4752   -1.6546    0.0000 H       1  UNL1        0.0625
     77 H          18.4752    1.6546    0.0000 H       1  UNL1        0.0625
     78 H          19.9242   -0.8329    0.0000 H       1  UNL1        0.0618
     79 H          19.9242    0.8329    0.0000 H       1  UNL1        0.0618
@<TRIPOS>BOND
     1     1    25    2
     2     2    28    2
     3     3     4    1
     4     3     8    1
     5     3    12    1
     6     3    34    1
     7     4     6    1
     8     4    35    1
     9     4    36    1
    10     5     7    1
    11     5     9    1
    12     5    14    1
    13     5    37    1
    14     6     7    1
    15     6    38    1
    16     6    39    1
    17     7    40    1
    18     7    41    1
    19     8    10    1
    20     8    42    1
    21     8    43    1
    22     9    13    1
    23     9    44    1
    24     9    45    1
    25    10    11    1
    26    10    46    1
    27    10    47    1
    28    11    15    1
    29    11    48    1
    30    11    49    1
    31    12    50    1
    32    12    51    1
    33    12    52    1
    34    13    16    1
    35    13    53    1
    36    13    54    1
    37    14    55    1
    38    14    56    1
    39    14    57    1
    40    15    17    1
    41    15    18    1
    42    15    58    1
    43    16    19    1
    44    16    59    1
    45    16    60    1
    46    17    61    1
    47    17    62    1
    48    17    63    1
    49    18    64    1
    50    18    65    1
    51    18    66    1
    52    19    20    2
    53    19    21    1
    54    20    22    1
    55    20    67    1
    56    21    68    1
    57    21    69    1
    58    21    70    1
    59    22    23    1
    60    22    71    1
    61    22    72    1
    62    23    24    2
    63    23    25    1
    64    24    28    1
    65    24    29    1
    66    25    26    1
    67    26    27   ar
    68    26    30   ar
    69    27    28    1
    70    27    31   ar
    71    29    73    1
    72    29    74    1
    73    29    75    1
    74    30    32   ar
    75    30    76    1
    76    31    33   ar
    77    31    77    1
    78    32    33   ar
    79    32    78    1
    80    33    79    1
