@<TRIPOS>MOLECULE
IMPHY017614
 42 42 0 0 0
SMALL
GASTEIGER

@<TRIPOS>ATOM
      1 O           5.5282    2.4739    0.0000 O.3     1  UNL1       -0.3875
      2 C           4.7465   -1.9632    0.0000 C.3     1  UNL1       -0.0346
      3 C           5.7060   -1.6814    0.0000 C.3     1  UNL1       -0.0476
      4 C           3.7870   -1.6814    0.0000 C.3     1  UNL1       -0.0442
      5 C           6.3608   -0.9257    0.0000 C.3     1  UNL1       -0.0488
      6 C           3.1321   -0.9257    0.0000 C.3     1  UNL1       -0.0315
      7 C           4.4648   -2.9226    0.0000 C.3     1  UNL1       -0.0598
      8 C           5.4702   -2.6532    0.0000 C.3     1  UNL1       -0.0598
      9 C           6.5032    0.0642    0.0000 C.3     1  UNL1       -0.0296
     10 C           2.9898    0.0642    0.0000 C.2     1  UNL1       -0.0765
     11 C           3.4052    0.9738    0.0000 C.3     1  UNL1       -0.0294
     12 C           5.2465    1.5144    0.0000 C.3     1  UNL1        0.0763
     13 C           4.2465    1.5144    0.0000 C.3     1  UNL1       -0.0193
     14 C           6.0877    0.9738    0.0000 C.2     1  UNL1       -0.0485
     15 C           2.0000    0.2065    0.0000 C.2     1  UNL1       -0.0994
     16 C           6.8435    1.6286    0.0000 C.2     1  UNL1       -0.0970
     17 H           5.6765   -2.3007    0.0000 H       1  UNL1        0.0271
     18 H           5.3708   -1.1598    0.0000 H       1  UNL1        0.0271
     19 H           3.2114   -1.9118    0.0000 H       1  UNL1        0.0273
     20 H           4.1222   -1.1598    0.0000 H       1  UNL1        0.0273
     21 H           6.6708   -1.4626    0.0000 H       1  UNL1        0.0268
     22 H           5.7969   -0.6681    0.0000 H       1  UNL1        0.0268
     23 H           2.5233   -0.8083    0.0000 H       1  UNL1        0.0310
     24 H           3.6961   -0.6681    0.0000 H       1  UNL1        0.0310
     25 H           3.8699   -2.7480    0.0000 H       1  UNL1        0.0235
     26 H           4.2901   -3.5175    0.0000 H       1  UNL1        0.0235
     27 H           5.0596   -3.0973    0.0000 H       1  UNL1        0.0235
     28 H           5.0424   -3.1019    0.0000 H       1  UNL1        0.0235
     29 H           5.9189   -3.0811    0.0000 H       1  UNL1        0.0235
     30 H           5.8981   -2.2045    0.0000 H       1  UNL1        0.0235
     31 H           7.0542   -0.2199    0.0000 H       1  UNL1        0.0311
     32 H           5.8895   -0.0241    0.0000 H       1  UNL1        0.0311
     33 H           3.2591    1.5763    0.0000 H       1  UNL1        0.0311
     34 H           3.8738    0.5678    0.0000 H       1  UNL1        0.0311
     35 H           5.8274    1.7311    0.0000 H       1  UNL1        0.0640
     36 H           4.4493    2.1003    0.0000 H       1  UNL1        0.0296
     37 H           4.4212    0.9195    0.0000 H       1  UNL1        0.0296
     38 H           1.7696    0.7821    0.0000 H       1  UNL1        0.0534
     39 H           1.6167   -0.2809    0.0000 H       1  UNL1        0.0534
     40 H           7.4294    1.4259    0.0000 H       1  UNL1        0.0535
     41 H           6.7262    2.2374    0.0000 H       1  UNL1        0.0535
     42 H           5.1004    2.9226    0.0000 H       1  UNL1        0.2102
@<TRIPOS>BOND
     1    12     1    1
     2     1    42    1
     3     2     3    1
     4     2     4    1
     5     2     7    1
     6     2     8    1
     7     3     5    1
     8     3    17    1
     9     3    18    1
    10     4     6    1
    11     4    19    1
    12     4    20    1
    13     5     9    1
    14     5    21    1
    15     5    22    1
    16     6    10    1
    17     6    23    1
    18     6    24    1
    19     7    25    1
    20     7    26    1
    21     7    27    1
    22     8    28    1
    23     8    29    1
    24     8    30    1
    25     9    14    1
    26     9    31    1
    27     9    32    1
    28    10    11    1
    29    10    15    2
    30    11    13    1
    31    11    33    1
    32    11    34    1
    33    12    13    1
    34    12    14    1
    35    12    35    1
    36    13    36    1
    37    13    37    1
    38    14    16    2
    39    15    38    1
    40    15    39    1
    41    16    40    1
    42    16    41    1
