@<TRIPOS>MOLECULE
IMPHY017154
 31 31 0 0 0
SMALL
GASTEIGER

@<TRIPOS>ATOM
      1 O           3.0000    1.7500    0.0000 O.3     1  UNL1       -0.4605
      2 O           3.8660    3.2500    0.0000 O.2     1  UNL1       -0.2546
      3 C           3.0000   -0.2500    0.0000 C.3     1  UNL1        0.0022
      4 C           3.0000    0.7500    0.0000 C.3     1  UNL1        0.1108
      5 C           2.1340   -0.7500    0.0000 C.3     1  UNL1       -0.0426
      6 C           3.8660   -0.7500    0.0000 C.3     1  UNL1       -0.0281
      7 C           2.1340   -1.7500    0.0000 C.3     1  UNL1       -0.0316
      8 C           3.0000   -2.2500    0.0000 C.2     1  UNL1       -0.0765
      9 C           3.8660   -1.7500    0.0000 C.2     1  UNL1       -0.0846
     10 C           4.0000    0.7500    0.0000 C.3     1  UNL1       -0.0248
     11 C           2.0000    0.7500    0.0000 C.3     1  UNL1       -0.0248
     12 C           3.0000   -3.2500    0.0000 C.3     1  UNL1       -0.0438
     13 C           3.8660    2.2500    0.0000 C.2     1  UNL1        0.2948
     14 H           3.5369    0.0600    0.0000 H       1  UNL1        0.0342
     15 H           1.9219   -0.1674    0.0000 H       1  UNL1        0.0272
     16 H           1.5234   -0.8577    0.0000 H       1  UNL1        0.0272
     17 H           4.4766   -0.8577    0.0000 H       1  UNL1        0.0311
     18 H           4.0781   -0.1674    0.0000 H       1  UNL1        0.0311
     19 H           1.5234   -1.6423    0.0000 H       1  UNL1        0.0310
     20 H           1.9219   -2.3326    0.0000 H       1  UNL1        0.0310
     21 H           4.4030   -2.0600    0.0000 H       1  UNL1        0.0572
     22 H           4.0000    0.1300    0.0000 H       1  UNL1        0.0268
     23 H           4.6200    0.7500    0.0000 H       1  UNL1        0.0268
     24 H           4.0000    1.3700    0.0000 H       1  UNL1        0.0268
     25 H           2.0000    1.3700    0.0000 H       1  UNL1        0.0268
     26 H           1.3800    0.7500    0.0000 H       1  UNL1        0.0268
     27 H           2.0000    0.1300    0.0000 H       1  UNL1        0.0268
     28 H           2.3800   -3.2500    0.0000 H       1  UNL1        0.0274
     29 H           3.0000   -3.8700    0.0000 H       1  UNL1        0.0274
     30 H           3.6200   -3.2500    0.0000 H       1  UNL1        0.0274
     31 H           4.4030    1.9400    0.0000 H       1  UNL1        0.1512
@<TRIPOS>BOND
     1     1     4    1
     2     1    13    1
     3     2    13    2
     4     3     4    1
     5     3     5    1
     6     3     6    1
     7     3    14    1
     8     4    10    1
     9     4    11    1
    10     5     7    1
    11     5    15    1
    12     5    16    1
    13     6     9    1
    14     6    17    1
    15     6    18    1
    16     7     8    1
    17     7    19    1
    18     7    20    1
    19     8     9    2
    20     8    12    1
    21     9    21    1
    22    10    22    1
    23    10    23    1
    24    10    24    1
    25    11    25    1
    26    11    26    1
    27    11    27    1
    28    12    28    1
    29    12    29    1
    30    12    30    1
    31    13    31    1
