@<TRIPOS>MOLECULE
IMPHY011146
 45 47 0 0 0
SMALL
GASTEIGER

@<TRIPOS>ATOM
      1 O           3.7817    1.4641    0.0000 O.3     1  UNL1       -0.5060
      2 O           8.1821    1.9746    0.0000 O.3     1  UNL1       -0.5065
      3 O           2.0000   -1.5946    0.0000 O.3     1  UNL1       -0.4950
      4 C           6.3961   -0.0705    0.0000 C.ar    1  UNL1       -0.0323
      5 C           6.3961   -1.0705    0.0000 C.3     1  UNL1       -0.0227
      6 C           5.5301   -1.5705    0.0000 C.3     1  UNL1       -0.0229
      7 C           5.5301    0.4295    0.0000 C.ar    1  UNL1       -0.0105
      8 C           4.6641   -1.0705    0.0000 C.ar    1  UNL1       -0.0324
      9 C           4.6641   -0.0705    0.0000 C.ar    1  UNL1        0.0272
     10 C           7.3062    0.4364    0.0000 C.ar    1  UNL1        0.0015
     11 C           5.5141    1.4710    0.0000 C.ar    1  UNL1       -0.0502
     12 C           8.1663   -0.0736    0.0000 C.3     1  UNL1       -0.0055
     13 C           3.7702    0.4642    0.0000 C.ar    1  UNL1        0.1283
     14 C           7.3142    1.4780    0.0000 C.ar    1  UNL1        0.1206
     15 C           3.7702   -1.6051    0.0000 C.ar    1  UNL1       -0.0160
     16 C           6.4121    1.9988    0.0000 C.ar    1  UNL1       -0.0193
     17 C           2.8641   -1.0913    0.0000 C.ar    1  UNL1        0.1239
     18 C           2.8641   -0.0497    0.0000 C.ar    1  UNL1        0.0221
     19 C           9.0381    0.4163    0.0000 C.2     1  UNL1       -0.0809
     20 C           9.8983   -0.0936    0.0000 C.2     1  UNL1       -0.0793
     21 C          10.7700    0.3963    0.0000 C.3     1  UNL1       -0.0440
     22 C           9.8867   -1.0936    0.0000 C.3     1  UNL1       -0.0440
     23 C           2.0038   -2.5946    0.0000 C.3     1  UNL1        0.0788
     24 H           6.6082   -1.6531    0.0000 H       1  UNL1        0.0317
     25 H           7.0067   -0.9628    0.0000 H       1  UNL1        0.0317
     26 H           5.1316   -2.0454    0.0000 H       1  UNL1        0.0317
     27 H           5.9286   -2.0454    0.0000 H       1  UNL1        0.0317
     28 H           4.9736    1.7748    0.0000 H       1  UNL1        0.0625
     29 H           7.7623   -0.5439    0.0000 H       1  UNL1        0.0357
     30 H           8.5594   -0.5531    0.0000 H       1  UNL1        0.0357
     31 H           3.7773   -2.2251    0.0000 H       1  UNL1        0.0657
     32 H           6.4097    2.6188    0.0000 H       1  UNL1        0.0654
     33 H           2.3284    0.2624    0.0000 H       1  UNL1        0.0691
     34 H           9.0453    1.0363    0.0000 H       1  UNL1        0.0575
     35 H           3.2484    1.7803    0.0000 H       1  UNL1        0.2922
     36 H           8.1845    2.5946    0.0000 H       1  UNL1        0.2921
     37 H          11.0738   -0.1442    0.0000 H       1  UNL1        0.0274
     38 H           9.2668   -1.0864    0.0000 H       1  UNL1        0.0274
     39 H           9.8795   -1.7135    0.0000 H       1  UNL1        0.0274
     40 H          10.5067   -1.1007    0.0000 H       1  UNL1        0.0274
     41 H          11.3105    0.7001    0.0000 H       1  UNL1        0.0274
     42 H          10.4663    0.9368    0.0000 H       1  UNL1        0.0274
     43 H           1.3839   -2.5970    0.0000 H       1  UNL1        0.0660
     44 H           2.0062   -3.2146    0.0000 H       1  UNL1        0.0660
     45 H           2.6238   -2.5922    0.0000 H       1  UNL1        0.0660
@<TRIPOS>BOND
     1     1    13    1
     2     1    35    1
     3     2    14    1
     4     2    36    1
     5     3    17    1
     6     3    23    1
     7     4     5    1
     8     4     7   ar
     9     4    10   ar
    10     5     6    1
    11     5    24    1
    12     5    25    1
    13     6     8    1
    14     6    26    1
    15     6    27    1
    16     7     9    1
    17     7    11   ar
    18     8     9   ar
    19     8    15   ar
    20     9    13   ar
    21    10    12    1
    22    10    14   ar
    23    11    16   ar
    24    11    28    1
    25    12    19    1
    26    12    29    1
    27    12    30    1
    28    13    18   ar
    29    14    16   ar
    30    15    17   ar
    31    15    31    1
    32    16    32    1
    33    17    18   ar
    34    18    33    1
    35    19    20    2
    36    19    34    1
    37    20    21    1
    38    20    22    1
    39    21    37    1
    40    21    41    1
    41    21    42    1
    42    22    38    1
    43    22    39    1
    44    22    40    1
    45    23    43    1
    46    23    44    1
    47    23    45    1
