@<TRIPOS>MOLECULE
IMPHY017305
 15 15 0 0 0
SMALL
GASTEIGER

@<TRIPOS>ATOM
      1 O           2.8090    0.0380    0.0000 O.2     1  UNL1       -0.4599
      2 O           5.7281   -0.9704    0.0000 O.3     1  UNL1       -0.3870
      3 O           5.3122    0.9859    0.0000 O.2     1  UNL1       -0.2863
      4 C           3.6180    0.6258    0.0000 C.ar    1  UNL1        0.1722
      5 C           4.5691    0.3168    0.0000 C.2     1  UNL1        0.2229
      6 C           3.3090    1.5768    0.0000 C.ar    1  UNL1       -0.0129
      7 C           4.7770   -0.6614    0.0000 C.3     1  UNL1        0.1099
      8 C           2.3090    1.5768    0.0000 C.ar    1  UNL1       -0.0232
      9 C           2.0000    0.6258    0.0000 C.ar    1  UNL1        0.0927
     10 H           3.6734    2.0784    0.0000 H       1  UNL1        0.0656
     11 H           4.1574   -0.6830    0.0000 H       1  UNL1        0.0641
     12 H           4.6907   -1.2753    0.0000 H       1  UNL1        0.0641
     13 H           1.9446    2.0784    0.0000 H       1  UNL1        0.0649
     14 H           1.4103    0.4342    0.0000 H       1  UNL1        0.1029
     15 H           5.8570   -1.5768    0.0000 H       1  UNL1        0.2100
@<TRIPOS>BOND
     1     1     4   ar
     2     1     9   ar
     3     2     7    1
     4     2    15    1
     5     3     5    2
     6     4     5    1
     7     4     6   ar
     8     5     7    1
     9     6     8   ar
    10     6    10    1
    11     7    11    1
    12     7    12    1
    13     8     9   ar
    14     8    13    1
    15     9    14    1
