@<TRIPOS>MOLECULE
IMPHY007902
 72 78 0 0 0
SMALL
GASTEIGER

@<TRIPOS>ATOM
      1 O           7.8725   -1.4890    0.0000 O.3     1  UNL1       -0.3406
      2 O           8.5634   -0.0542    0.0000 O.3     1  UNL1       -0.3442
      3 O           6.1234   -1.9268    0.0000 O.3     1  UNL1       -0.3765
      4 O           4.9163    1.8904    0.0000 O.3     1  UNL1       -0.3912
      5 O           8.6331    1.4645    0.0000 O.3     1  UNL1       -0.3910
      6 O           9.0340    2.3483    0.0000 O.3     1  UNL1       -0.3793
      7 O           4.0503   -2.3448    0.0000 O.3     1  UNL1       -0.3824
      8 N           3.7210    0.0613    0.0000 N.3     1  UNL1       -0.2955
      9 C           5.6676    0.4566    0.0000 C.3     1  UNL1        0.0242
     10 C           7.1918   -0.7589    0.0000 C.3     1  UNL1        0.1435
     11 C           4.6656    0.3505    0.0000 C.3     1  UNL1        0.0533
     12 C           5.6676   -0.4110    0.0000 C.3     1  UNL1        0.0068
     13 C           6.3459    0.9975    0.0000 C.3     1  UNL1       -0.0228
     14 C           7.5682    0.0228    0.0000 C.3     1  UNL1        0.1128
     15 C           7.1918    0.8044    0.0000 C.3     1  UNL1        0.0210
     16 C           6.3459   -0.9519    0.0000 C.3     1  UNL1        0.0956
     17 C           4.9163   -0.8448    0.0000 C.3     1  UNL1        0.0128
     18 C           4.9163    0.8904    0.0000 C.3     1  UNL1        0.0630
     19 C           6.2682    1.8616    0.0000 C.3     1  UNL1       -0.0416
     20 C           7.0659    2.2026    0.0000 C.3     1  UNL1        0.0120
     21 C           7.6367    1.5492    0.0000 C.3     1  UNL1        0.0662
     22 C           8.2131    0.2927    0.0000 C.3     1  UNL1        0.0063
     23 C           3.7210   -0.6906    0.0000 C.3     1  UNL1        0.0074
     24 C           8.2131    1.7772    0.0000 C.3     1  UNL1        0.0662
     25 C           4.1649   -0.4110    0.0000 C.3     1  UNL1       -0.0414
     26 C           4.1649    0.4566    0.0000 C.3     1  UNL1       -0.0256
     27 C           4.9163   -1.8448    0.0000 C.3     1  UNL1        0.0544
     28 C           8.7604   -1.0328    0.0000 C.3     1  UNL1        0.1500
     29 C           2.9170    0.6560    0.0000 C.3     1  UNL1       -0.0035
     30 C           6.8564   -2.6070    0.0000 C.3     1  UNL1        0.0369
     31 C           2.0000    0.2571    0.0000 C.3     1  UNL1       -0.0523
     32 C           8.9498    3.3448    0.0000 C.3     1  UNL1        0.0368
     33 C           4.0503   -3.3448    0.0000 C.3     1  UNL1        0.0365
     34 H           4.2211    1.0750    0.0000 H       1  UNL1        0.0499
     35 H           5.6041   -1.2586    0.0000 H       1  UNL1        0.0340
     36 H           5.5643    1.3316    0.0000 H       1  UNL1        0.0312
     37 H           8.0409    0.7663    0.0000 H       1  UNL1        0.0358
     38 H           6.7843   -1.3903    0.0000 H       1  UNL1        0.0629
     39 H           5.4532    1.2004    0.0000 H       1  UNL1        0.0599
     40 H           6.0854    2.4540    0.0000 H       1  UNL1        0.0272
     41 H           5.6598    1.7418    0.0000 H       1  UNL1        0.0272
     42 H           7.0452    3.0523    0.0000 H       1  UNL1        0.0351
     43 H           7.9168    2.1023    0.0000 H       1  UNL1        0.0600
     44 H           8.3750   -0.3058    0.0000 H       1  UNL1        0.0319
     45 H           8.8277    0.3744    0.0000 H       1  UNL1        0.0319
     46 H           3.1015   -0.6640    0.0000 H       1  UNL1        0.0433
     47 H           3.6680   -1.3083    0.0000 H       1  UNL1        0.0433
     48 H           8.1349    2.3923    0.0000 H       1  UNL1        0.0600
     49 H           3.5544   -0.3033    0.0000 H       1  UNL1        0.0273
     50 H           3.9529   -0.9936    0.0000 H       1  UNL1        0.0273
     51 H           3.9529    1.0392    0.0000 H       1  UNL1        0.0290
     52 H           3.5544    0.3489    0.0000 H       1  UNL1        0.0290
     53 H           5.1283   -2.4274    0.0000 H       1  UNL1        0.0566
     54 H           5.5269   -1.7371    0.0000 H       1  UNL1        0.0566
     55 H           8.9919   -1.6080    0.0000 H       1  UNL1        0.0872
     56 H           9.3544   -0.8552    0.0000 H       1  UNL1        0.0872
     57 H           3.3666    1.0829    0.0000 H       1  UNL1        0.0424
     58 H           2.5747    1.1730    0.0000 H       1  UNL1        0.0424
     59 H           4.3793    2.2004    0.0000 H       1  UNL1        0.2098
     60 H           8.8966    0.9033    0.0000 H       1  UNL1        0.2098
     61 H           6.4348   -3.0615    0.0000 H       1  UNL1        0.0524
     62 H           7.3110   -3.0287    0.0000 H       1  UNL1        0.0524
     63 H           7.2782   -2.1525    0.0000 H       1  UNL1        0.0524
     64 H           1.7527    0.8256    0.0000 H       1  UNL1        0.0242
     65 H           1.4315    0.0098    0.0000 H       1  UNL1        0.0242
     66 H           2.2473   -0.3114    0.0000 H       1  UNL1        0.0242
     67 H           9.5676    3.3970    0.0000 H       1  UNL1        0.0524
     68 H           8.8976    3.9626    0.0000 H       1  UNL1        0.0524
     69 H           8.3320    3.2926    0.0000 H       1  UNL1        0.0524
     70 H           3.4303   -3.3448    0.0000 H       1  UNL1        0.0523
     71 H           4.0503   -3.9648    0.0000 H       1  UNL1        0.0523
     72 H           4.6703   -3.3448    0.0000 H       1  UNL1        0.0523
@<TRIPOS>BOND
     1    10     1    1
     2     1    28    1
     3    14     2    1
     4     2    28    1
     5    16     3    1
     6     3    30    1
     7    18     4    1
     8     4    59    1
     9    21     5    1
    10     5    60    1
    11    24     6    1
    12     6    32    1
    13     7    27    1
    14     7    33    1
    15     8    11    1
    16     8    23    1
    17     8    29    1
    18     9    11    1
    19     9    12    1
    20     9    13    1
    21     9    18    1
    22    10    11    1
    23    10    14    1
    24    10    16    1
    25    11    34    1
    26    12    16    1
    27    12    17    1
    28    12    35    1
    29    13    15    1
    30    13    19    1
    31    13    36    1
    32    14    15    1
    33    14    22    1
    34    15    21    1
    35    15    37    1
    36    16    38    1
    37    17    23    1
    38    17    25    1
    39    17    27    1
    40    18    26    1
    41    18    39    1
    42    19    20    1
    43    19    40    1
    44    19    41    1
    45    20    21    1
    46    20    24    1
    47    20    42    1
    48    21    43    1
    49    22    24    1
    50    22    44    1
    51    22    45    1
    52    23    46    1
    53    23    47    1
    54    24    48    1
    55    25    26    1
    56    25    49    1
    57    25    50    1
    58    26    51    1
    59    26    52    1
    60    27    53    1
    61    27    54    1
    62    28    55    1
    63    28    56    1
    64    29    31    1
    65    29    57    1
    66    29    58    1
    67    30    61    1
    68    30    62    1
    69    30    63    1
    70    31    64    1
    71    31    65    1
    72    31    66    1
    73    32    67    1
    74    32    68    1
    75    32    69    1
    76    33    70    1
    77    33    71    1
    78    33    72    1
