@<TRIPOS>MOLECULE
IMPHY001436
 31 30 0 0 0
SMALL
GASTEIGER

@<TRIPOS>ATOM
      1 P           3.4030   -0.2500    0.0000 P.3     1  UNL1        0.4724
      2 O           6.8671   -1.2500    0.0000 O.3     1  UNL1       -0.3865
      3 O           7.7331    1.2500    0.0000 O.3     1  UNL1       -0.3865
      4 O           6.0010    1.2500    0.0000 O.3     1  UNL1       -0.3868
      5 O           8.5991   -1.2500    0.0000 O.3     1  UNL1       -0.3869
      6 O           4.2690    0.2500    0.0000 O.3     1  UNL1       -0.2841
      7 O          10.3312   -0.2500    0.0000 O.3     1  UNL1       -0.3924
      8 O           2.5369   -0.7500    0.0000 O.3     1  UNL1       -0.3026
      9 O           2.9030    0.6160    0.0000 O.3     1  UNL1       -0.3026
     10 O           3.9030   -1.1160    0.0000 O.2     1  UNL1       -0.2275
     11 C           6.8671   -0.2500    0.0000 C.3     1  UNL1        0.1115
     12 C           7.7331    0.2500    0.0000 C.3     1  UNL1        0.1114
     13 C           6.0010    0.2500    0.0000 C.3     1  UNL1        0.1073
     14 C           8.5991   -0.2500    0.0000 C.3     1  UNL1        0.1065
     15 C           5.1350   -0.2500    0.0000 C.3     1  UNL1        0.0875
     16 C           9.4651    0.2500    0.0000 C.3     1  UNL1        0.0727
     17 H           6.3301   -0.5600    0.0000 H       1  UNL1        0.0647
     18 H           8.2700    0.5600    0.0000 H       1  UNL1        0.0647
     19 H           6.5380    0.5600    0.0000 H       1  UNL1        0.0643
     20 H           8.0622   -0.5600    0.0000 H       1  UNL1        0.0643
     21 H           4.7365   -0.7249    0.0000 H       1  UNL1        0.0592
     22 H           5.5335   -0.7249    0.0000 H       1  UNL1        0.0592
     23 H           9.8637    0.7249    0.0000 H       1  UNL1        0.0584
     24 H           9.0666    0.7249    0.0000 H       1  UNL1        0.0584
     25 H           6.3301   -1.5600    0.0000 H       1  UNL1        0.2100
     26 H           8.2700    1.5600    0.0000 H       1  UNL1        0.2100
     27 H           5.4641    1.5600    0.0000 H       1  UNL1        0.2100
     28 H           9.1360   -1.5600    0.0000 H       1  UNL1        0.2100
     29 H          10.8681    0.0600    0.0000 H       1  UNL1        0.2095
     30 H           2.0000   -0.4400    0.0000 H       1  UNL1        0.2220
     31 H           3.2130    1.1530    0.0000 H       1  UNL1        0.2220
@<TRIPOS>BOND
     1     1     6    1
     2     1     8    1
     3     1     9    1
     4     1    10    2
     5    11     2    1
     6     2    25    1
     7    12     3    1
     8     3    26    1
     9    13     4    1
    10     4    27    1
    11    14     5    1
    12     5    28    1
    13     6    15    1
    14     7    16    1
    15     7    29    1
    16     8    30    1
    17     9    31    1
    18    11    12    1
    19    11    13    1
    20    11    17    1
    21    12    14    1
    22    12    18    1
    23    13    15    1
    24    13    19    1
    25    14    16    1
    26    14    20    1
    27    15    21    1
    28    15    22    1
    29    16    23    1
    30    16    24    1
