@<TRIPOS>MOLECULE
IMPHY012137
 20 21 0 0 0
SMALL
GASTEIGER

@<TRIPOS>ATOM
      1 O           2.9155    0.8120    0.0000 O.3     1  UNL1       -0.3686
      2 O           4.8127   -0.8018    0.0000 O.3     1  UNL1       -0.3686
      3 O           2.6064   -1.7571    0.0000 O.3     1  UNL1       -0.3869
      4 O           5.1234    1.7582    0.0000 O.3     1  UNL1       -0.3869
      5 C           3.8665   -0.4971    0.0000 C.3     1  UNL1        0.1152
      6 C           3.8665    0.5029    0.0000 C.3     1  UNL1        0.1152
      7 C           2.9155   -0.8061    0.0000 C.3     1  UNL1        0.1070
      8 C           4.8127    0.8077    0.0000 C.3     1  UNL1        0.1070
      9 C           2.3277    0.0029    0.0000 C.3     1  UNL1        0.0767
     10 C           5.3964    0.0029    0.0000 C.3     1  UNL1        0.0767
     11 H           3.8676   -1.3471    0.0000 H       1  UNL1        0.0649
     12 H           3.8676    1.3529    0.0000 H       1  UNL1        0.0649
     13 H           2.3031   -0.9031    0.0000 H       1  UNL1        0.0643
     14 H           5.4252    0.9039    0.0000 H       1  UNL1        0.0643
     15 H           1.8669    0.4178    0.0000 H       1  UNL1        0.0586
     16 H           1.8669   -0.4119    0.0000 H       1  UNL1        0.0586
     17 H           5.8572   -0.4118    0.0000 H       1  UNL1        0.0586
     18 H           5.8572    0.4177    0.0000 H       1  UNL1        0.0586
     19 H           2.0000   -1.8860    0.0000 H       1  UNL1        0.2100
     20 H           5.7301    1.8860    0.0000 H       1  UNL1        0.2100
@<TRIPOS>BOND
     1     1     6    1
     2     1     9    1
     3     2     5    1
     4     2    10    1
     5     7     3    1
     6     3    19    1
     7     8     4    1
     8     4    20    1
     9     5     6    1
    10     5     7    1
    11     5    11    1
    12     6     8    1
    13     6    12    1
    14     7     9    1
    15     7    13    1
    16     8    10    1
    17     8    14    1
    18     9    15    1
    19     9    16    1
    20    10    17    1
    21    10    18    1
