@<TRIPOS>MOLECULE
IMPHY005544
 32 33 0 0 0
SMALL
GASTEIGER

@<TRIPOS>ATOM
      1 S           5.4765   -1.7328    0.0000 S.3     1  UNL1       -0.1536
      2 O           9.5452   -1.7328    0.0000 O.2     1  UNL1       -0.2528
      3 O           2.1926    2.5422    0.0000 O.3     1  UNL1       -0.4806
      4 O           3.8390    3.0802    0.0000 O.2     1  UNL1       -0.2510
      5 N           7.9574   -0.9238    0.0000 N.am    1  UNL1       -0.2937
      6 N           7.9574   -2.5418    0.0000 N.am    1  UNL1       -0.2940
      7 C           7.0063   -1.2328    0.0000 C.3     1  UNL1        0.0555
      8 C           7.0063   -2.2328    0.0000 C.3     1  UNL1        0.0529
      9 C           6.0601   -0.9281    0.0000 C.3     1  UNL1        0.0255
     10 C           6.0601   -2.5375    0.0000 C.3     1  UNL1        0.0143
     11 C           5.7495    0.0225    0.0000 C.3     1  UNL1       -0.0394
     12 C           4.7710    0.2287    0.0000 C.3     1  UNL1       -0.0515
     13 C           8.5452   -1.7328    0.0000 C.2     1  UNL1        0.3002
     14 C           4.4603    1.1792    0.0000 C.3     1  UNL1       -0.0430
     15 C           3.4818    1.3854    0.0000 C.3     1  UNL1        0.0448
     16 C           3.1711    2.3359    0.0000 C.2     1  UNL1        0.3047
     17 H           7.0052   -0.3828    0.0000 H       1  UNL1        0.0528
     18 H           7.0052   -3.0828    0.0000 H       1  UNL1        0.0525
     19 H           5.4476   -0.8319    0.0000 H       1  UNL1        0.0431
     20 H           5.5227   -2.8468    0.0000 H       1  UNL1        0.0395
     21 H           6.3111   -3.1044    0.0000 H       1  UNL1        0.0395
     22 H           6.3633    0.1098    0.0000 H       1  UNL1        0.0276
     23 H           5.7700    0.6421    0.0000 H       1  UNL1        0.0276
     24 H           8.1490   -0.3341    0.0000 H       1  UNL1        0.1506
     25 H           8.1490   -3.1315    0.0000 H       1  UNL1        0.1506
     26 H           4.1571    0.1413    0.0000 H       1  UNL1        0.0266
     27 H           4.7504   -0.3910    0.0000 H       1  UNL1        0.0266
     28 H           5.0741    1.2665    0.0000 H       1  UNL1        0.0270
     29 H           4.4808    1.7988    0.0000 H       1  UNL1        0.0270
     30 H           2.8680    1.2981    0.0000 H       1  UNL1        0.0377
     31 H           3.4612    0.7658    0.0000 H       1  UNL1        0.0377
     32 H           2.0000    3.1315    0.0000 H       1  UNL1        0.2951
@<TRIPOS>BOND
     1     1     9    1
     2     1    10    1
     3     2    13    2
     4     3    16    1
     5     3    32    1
     6     4    16    2
     7     5     7    1
     8     5    13   am
     9     5    24    1
    10     6     8    1
    11     6    13   am
    12     6    25    1
    13     7     8    1
    14     7     9    1
    15     7    17    1
    16     8    10    1
    17     8    18    1
    18     9    11    1
    19     9    19    1
    20    10    20    1
    21    10    21    1
    22    11    12    1
    23    11    22    1
    24    11    23    1
    25    12    14    1
    26    12    26    1
    27    12    27    1
    28    14    15    1
    29    14    28    1
    30    14    29    1
    31    15    16    1
    32    15    30    1
    33    15    31    1
