@<TRIPOS>MOLECULE
IMPHY012631
 23 24 0 0 0
SMALL
GASTEIGER

@<TRIPOS>ATOM
      1 CL          7.2641   -0.6900    0.0000 Cl      1  UNL1       -0.1235
      2 O           4.6660    1.8100    0.0000 O.2     1  UNL1       -0.2919
      3 N           4.6660   -1.1900    0.0000 N.pl3   1  UNL1       -0.3389
      4 C           5.5321   -0.6900    0.0000 C.3     1  UNL1        0.0410
      5 C           5.5321    0.3100    0.0000 C.3     1  UNL1        0.0300
      6 C           3.8000   -0.6900    0.0000 C.ar    1  UNL1        0.0380
      7 C           3.8000    0.3100    0.0000 C.ar    1  UNL1        0.0383
      8 C           4.6660    0.8100    0.0000 C.2     1  UNL1        0.1667
      9 C           6.3981   -1.1900    0.0000 C.3     1  UNL1        0.0413
     10 C           2.9061   -1.2247    0.0000 C.ar    1  UNL1       -0.0402
     11 C           2.9061    0.8447    0.0000 C.ar    1  UNL1       -0.0495
     12 C           2.0000   -0.7108    0.0000 C.ar    1  UNL1       -0.0600
     13 C           2.0000    0.3308    0.0000 C.ar    1  UNL1       -0.0610
     14 H           5.5321   -1.3100    0.0000 H       1  UNL1        0.0513
     15 H           6.1426    0.2023    0.0000 H       1  UNL1        0.0364
     16 H           5.7441    0.8926    0.0000 H       1  UNL1        0.0364
     17 H           4.6660   -1.8100    0.0000 H       1  UNL1        0.1464
     18 H           5.9996   -1.6650    0.0000 H       1  UNL1        0.0448
     19 H           6.7966   -1.6650    0.0000 H       1  UNL1        0.0448
     20 H           2.9132   -1.8446    0.0000 H       1  UNL1        0.0636
     21 H           2.9132    1.4646    0.0000 H       1  UNL1        0.0625
     22 H           1.4643   -1.0229    0.0000 H       1  UNL1        0.0618
     23 H           1.4643    0.6429    0.0000 H       1  UNL1        0.0618
@<TRIPOS>BOND
     1     1     9    1
     2     2     8    2
     3     3     4    1
     4     3     6    1
     5     3    17    1
     6     4     5    1
     7     4     9    1
     8     4    14    1
     9     5     8    1
    10     5    15    1
    11     5    16    1
    12     6     7   ar
    13     6    10   ar
    14     7     8    1
    15     7    11   ar
    16     9    18    1
    17     9    19    1
    18    10    12   ar
    19    10    20    1
    20    11    13   ar
    21    11    21    1
    22    12    13   ar
    23    12    22    1
    24    13    23    1
