@<TRIPOS>MOLECULE
IMPHY011556
 22 22 0 0 0
SMALL
GASTEIGER

@<TRIPOS>ATOM
      1 O           5.1350    1.0000    0.0000 O.3     1  UNL1       -0.4614
      2 O           2.5369   -0.5000    0.0000 O.3     1  UNL1       -0.5059
      3 O           3.4030    1.0000    0.0000 O.2     1  UNL1       -0.2448
      4 C           4.2690   -0.5000    0.0000 C.ar    1  UNL1        0.1003
      5 C           3.4030   -1.0000    0.0000 C.ar    1  UNL1        0.1308
      6 C           5.1350   -1.0000    0.0000 C.ar    1  UNL1       -0.0442
      7 C           4.2690    0.5000    0.0000 C.2     1  UNL1        0.3427
      8 C           5.1350    2.0000    0.0000 C.3     1  UNL1        0.0900
      9 C           3.4030   -2.0000    0.0000 C.ar    1  UNL1       -0.0194
     10 C           5.1350   -2.0000    0.0000 C.ar    1  UNL1       -0.0608
     11 C           4.2690   -2.5000    0.0000 C.ar    1  UNL1       -0.0583
     12 C           6.0010    2.5000    0.0000 C.3     1  UNL1       -0.0306
     13 H           5.6720   -0.6900    0.0000 H       1  UNL1        0.0627
     14 H           4.9230    2.5826    0.0000 H       1  UNL1        0.0695
     15 H           4.5244    1.8923    0.0000 H       1  UNL1        0.0695
     16 H           2.8660   -2.3100    0.0000 H       1  UNL1        0.0654
     17 H           5.6720   -2.3100    0.0000 H       1  UNL1        0.0618
     18 H           4.2690   -3.1200    0.0000 H       1  UNL1        0.0619
     19 H           6.3110    1.9631    0.0000 H       1  UNL1        0.0262
     20 H           6.5380    2.8100    0.0000 H       1  UNL1        0.0262
     21 H           5.6910    3.0369    0.0000 H       1  UNL1        0.0262
     22 H           2.0000   -0.8100    0.0000 H       1  UNL1        0.2922
@<TRIPOS>BOND
     1     1     7    1
     2     1     8    1
     3     2     5    1
     4     2    22    1
     5     3     7    2
     6     4     5   ar
     7     4     6   ar
     8     4     7    1
     9     5     9   ar
    10     6    10   ar
    11     6    13    1
    12     8    12    1
    13     8    14    1
    14     8    15    1
    15     9    11   ar
    16     9    16    1
    17    10    11   ar
    18    10    17    1
    19    11    18    1
    20    12    19    1
    21    12    20    1
    22    12    21    1
