@<TRIPOS>MOLECULE
IMPHY001967
 65 71 0 0 0
SMALL
GASTEIGER

@<TRIPOS>ATOM
      1 O           6.7281    1.7089    0.0000 O.3     1  UNL1       -0.3591
      2 O           6.3861   -0.0800    0.0000 O.3     1  UNL1       -0.3146
      3 O           5.5000   -0.5644    0.0000 O.3     1  UNL1       -0.3157
      4 O           5.6060   -2.1410    0.0000 O.3     1  UNL1       -0.3090
      5 O           9.5633    1.7526    0.0000 O.3     1  UNL1       -0.3773
      6 O           9.1512    2.4605    0.0000 O.3     1  UNL1       -0.3854
      7 O           7.9755    3.2722    0.0000 O.3     1  UNL1       -0.3920
      8 O          10.8455    1.7218    0.0000 O.2     1  UNL1       -0.2892
      9 C           7.3164   -0.1972    0.0000 C.3     1  UNL1        0.0478
     10 C           8.2173   -0.6311    0.0000 C.3     1  UNL1        0.0951
     11 C           7.0938    0.7777    0.0000 C.3     1  UNL1        0.1013
     12 C           7.7173    1.5595    0.0000 C.3     1  UNL1        0.1479
     13 C           6.4468   -0.7707    0.0000 C.3     1  UNL1        0.1054
     14 C           9.1183   -0.1972    0.0000 C.3     1  UNL1        0.0464
     15 C           8.3112   -1.6685    0.0000 C.3     1  UNL1       -0.0104
     16 C           6.5166   -1.8100    0.0000 C.3     1  UNL1        0.1228
     17 C           9.3408    0.7777    0.0000 C.3     1  UNL1        0.1650
     18 C           8.7173    1.5595    0.0000 C.3     1  UNL1        0.1252
     19 C           7.4551   -2.2619    0.0000 C.3     1  UNL1       -0.0120
     20 C           4.9932   -1.3903    0.0000 C.3     1  UNL1        0.3162
     21 C           8.3408    2.3414    0.0000 C.3     1  UNL1        0.0783
     22 C           9.9730   -0.7049    0.0000 C.2     1  UNL1       -0.0687
     23 C           9.2171   -2.0920    0.0000 C.3     1  UNL1       -0.0597
     24 C          10.3311    0.8642    0.0000 C.2     1  UNL1        0.1933
     25 C           6.5836   -2.8077    0.0000 C.2     1  UNL1       -0.0456
     26 C          10.7210   -0.0502    0.0000 C.2     1  UNL1       -0.0085
     27 C           3.9955   -1.4574    0.0000 C.ar    1  UNL1        0.0409
     28 C           5.7531   -3.3646    0.0000 C.3     1  UNL1       -0.0413
     29 C          11.6960   -0.2727    0.0000 C.3     1  UNL1       -0.0366
     30 C           7.4812   -3.2485    0.0000 C.2     1  UNL1       -0.0969
     31 C           3.4386   -0.6268    0.0000 C.ar    1  UNL1       -0.0510
     32 C           3.5547   -2.3550    0.0000 C.ar    1  UNL1       -0.0510
     33 C           2.4408   -0.6938    0.0000 C.ar    1  UNL1       -0.0613
     34 C           2.5569   -2.4220    0.0000 C.ar    1  UNL1       -0.0613
     35 C           2.0000   -1.5914    0.0000 C.ar    1  UNL1       -0.0617
     36 H           6.7915    0.4714    0.0000 H       1  UNL1        0.0381
     37 H           6.2816    0.5270    0.0000 H       1  UNL1        0.0631
     38 H           5.7904   -0.2307    0.0000 H       1  UNL1        0.0635
     39 H           9.0813   -1.0464    0.0000 H       1  UNL1        0.0405
     40 H           8.3635   -2.2863    0.0000 H       1  UNL1        0.0327
     41 H           8.3875    2.0845    0.0000 H       1  UNL1        0.0657
     42 H           7.0945   -2.7662    0.0000 H       1  UNL1        0.0301
     43 H           7.8903   -2.7035    0.0000 H       1  UNL1        0.0301
     44 H           8.7511    1.8765    0.0000 H       1  UNL1        0.0588
     45 H           8.8699    2.6646    0.0000 H       1  UNL1        0.0588
     46 H          10.0296   -1.3223    0.0000 H       1  UNL1        0.0580
     47 H           8.9546   -2.6536    0.0000 H       1  UNL1        0.0233
     48 H           9.7788   -2.3545    0.0000 H       1  UNL1        0.0233
     49 H           9.4796   -1.5303    0.0000 H       1  UNL1        0.0233
     50 H          10.1558    1.9354    0.0000 H       1  UNL1        0.2109
     51 H           8.8020    2.9728    0.0000 H       1  UNL1        0.2100
     52 H           5.4078   -2.8497    0.0000 H       1  UNL1        0.0275
     53 H           5.2382   -3.7099    0.0000 H       1  UNL1        0.0275
     54 H           6.0984   -3.8796    0.0000 H       1  UNL1        0.0275
     55 H           7.3624    3.3646    0.0000 H       1  UNL1        0.2095
     56 H          11.5580   -0.8772    0.0000 H       1  UNL1        0.0279
     57 H          12.3004   -0.4107    0.0000 H       1  UNL1        0.0279
     58 H          11.8339    0.3317    0.0000 H       1  UNL1        0.0279
     59 H           7.5228   -3.8671    0.0000 H       1  UNL1        0.0535
     60 H           7.9962   -2.9032    0.0000 H       1  UNL1        0.0535
     61 H           3.7119   -0.0703    0.0000 H       1  UNL1        0.0623
     62 H           3.9000   -2.8699    0.0000 H       1  UNL1        0.0623
     63 H           2.0955   -0.1789    0.0000 H       1  UNL1        0.0618
     64 H           2.2836   -2.9785    0.0000 H       1  UNL1        0.0618
     65 H           1.3814   -1.6330    0.0000 H       1  UNL1        0.0618
@<TRIPOS>BOND
     1     1    11    1
     2     1    12    1
     3    10     2    1
     4     2    20    1
     5     3    13    1
     6     3    20    1
     7     4    16    1
     8     4    20    1
     9    17     5    1
    10     5    50    1
    11    18     6    1
    12     6    51    1
    13     7    21    1
    14     7    55    1
    15     8    24    2
    16     9    10    1
    17     9    11    1
    18     9    13    1
    19     9    36    1
    20    10    14    1
    21    10    15    1
    22    11    12    1
    23    11    37    1
    24    12    18    1
    25    12    21    1
    26    13    16    1
    27    13    38    1
    28    14    17    1
    29    14    22    1
    30    14    39    1
    31    15    19    1
    32    15    23    1
    33    15    40    1
    34    16    19    1
    35    16    25    1
    36    17    18    1
    37    17    24    1
    38    18    41    1
    39    19    42    1
    40    19    43    1
    41    20    27    1
    42    21    44    1
    43    21    45    1
    44    22    26    2
    45    22    46    1
    46    23    47    1
    47    23    48    1
    48    23    49    1
    49    24    26    1
    50    25    28    1
    51    25    30    2
    52    26    29    1
    53    27    31   ar
    54    27    32   ar
    55    28    52    1
    56    28    53    1
    57    28    54    1
    58    29    56    1
    59    29    57    1
    60    29    58    1
    61    30    59    1
    62    30    60    1
    63    31    33   ar
    64    31    61    1
    65    32    34   ar
    66    32    62    1
    67    33    35   ar
    68    33    63    1
    69    34    35   ar
    70    34    64    1
    71    35    65    1
