@<TRIPOS>MOLECULE
IMPHY006648
 20 21 0 0 0
SMALL
GASTEIGER

@<TRIPOS>ATOM
      1 O           2.0000   -0.9516    0.0000 O.2     1  UNL1       -0.4696
      2 O           2.0000    2.0484    0.0000 O.3     1  UNL1       -0.4770
      3 O           3.7320    2.0484    0.0000 O.2     1  UNL1       -0.2450
      4 O           5.9674   -2.4131    0.0000 O.2     1  UNL1       -0.2957
      5 C           3.7320    0.0484    0.0000 C.ar    1  UNL1        0.0026
      6 C           3.7320   -0.9516    0.0000 C.ar    1  UNL1        0.0280
      7 C           4.6783   -1.2564    0.0000 C.ar    1  UNL1        0.0248
      8 C           2.8660    0.5484    0.0000 C.ar    1  UNL1        0.1013
      9 C           4.6783    0.3531    0.0000 C.ar    1  UNL1       -0.0524
     10 C           5.2619   -0.4516    0.0000 C.ar    1  UNL1       -0.0503
     11 C           2.8660   -1.4516    0.0000 C.ar    1  UNL1        0.1000
     12 C           2.0000    0.0484    0.0000 C.ar    1  UNL1        0.1062
     13 C           2.8660    1.5484    0.0000 C.2     1  UNL1        0.3404
     14 C           4.9889   -2.2069    0.0000 C.2     1  UNL1        0.1509
     15 H           4.8709    0.9424    0.0000 H       1  UNL1        0.0624
     16 H           5.8819   -0.4516    0.0000 H       1  UNL1        0.0625
     17 H           2.8660   -2.0716    0.0000 H       1  UNL1        0.1036
     18 H           1.4631    0.3584    0.0000 H       1  UNL1        0.1038
     19 H           4.5749   -2.6684    0.0000 H       1  UNL1        0.1082
     20 H           2.0000    2.6684    0.0000 H       1  UNL1        0.2954
@<TRIPOS>BOND
     1     1    11   ar
     2     1    12   ar
     3     2    13    1
     4     2    20    1
     5     3    13    2
     6     4    14    2
     7     5     6    1
     8     5     8   ar
     9     5     9   ar
    10     6     7   ar
    11     6    11   ar
    12     7    10   ar
    13     7    14    1
    14     8    12   ar
    15     8    13    1
    16     9    10   ar
    17     9    15    1
    18    10    16    1
    19    11    17    1
    20    12    18    1
    21    14    19    1
