@<TRIPOS>MOLECULE
IMPHY012407
 52 54 0 0 0
SMALL
GASTEIGER

@<TRIPOS>ATOM
      1 O           4.5643    8.7672    0.0000 O.3     1  UNL1       -0.4910
      2 O           7.3086    2.0988    0.0000 O.3     1  UNL1       -0.4914
      3 O           5.5052    1.0391    0.0000 O.3     1  UNL1       -0.4914
      4 O           6.3302    9.8050    0.0000 O.3     1  UNL1       -0.4914
      5 O           0.0000    5.1648    0.0000 O.co2   2  HOH2       -0.8710
      6 N           4.5861    5.7358    0.0000 N.2     1  UNL1       -0.2265
      7 C           5.4521    5.2358    0.0000 C.2     1  UNL1        0.1909
      8 C           3.6761    5.2289    0.0000 C.3     1  UNL1        0.1496
      9 C           4.5861    6.7358    0.0000 C.3     1  UNL1        0.1744
     10 C           6.3181    5.7358    0.0000 C.3     1  UNL1        0.0583
     11 C           3.6680    4.1873    0.0000 C.3     1  UNL1        0.0326
     12 C           5.4681    4.1943    0.0000 C.ar    1  UNL1        0.0487
     13 C           5.4521    7.2358    0.0000 C.ar    1  UNL1        0.0656
     14 C           4.5701    3.6665    0.0000 C.ar    1  UNL1       -0.0246
     15 C           6.3181    6.7358    0.0000 C.ar    1  UNL1       -0.0244
     16 C           5.4360    8.2773    0.0000 C.ar    1  UNL1        0.1709
     17 C           6.4201    3.6737    0.0000 C.ar    1  UNL1       -0.0030
     18 C           4.5618    2.5816    0.0000 C.ar    1  UNL1       -0.0122
     19 C           7.2281    7.2426    0.0000 C.ar    1  UNL1       -0.0539
     20 C           6.4368    2.5888    0.0000 C.ar    1  UNL1        0.1623
     21 C           5.5014    2.0391    0.0000 C.ar    1  UNL1        0.1618
     22 C           6.3341    8.8050    0.0000 C.ar    1  UNL1        0.1620
     23 C           7.2362    8.2842    0.0000 C.ar    1  UNL1       -0.0160
     24 C           4.5527    9.7672    0.0000 C.3     1  UNL1        0.0790
     25 C           7.3201    1.0989    0.0000 C.3     1  UNL1        0.0790
     26 C           4.6412    0.5357    0.0000 C.3     1  UNL1        0.0790
     27 C           7.1943   10.3084    0.0000 C.3     1  UNL1        0.0790
     28 H           3.4715    5.8142    0.0000 H       1  UNL1        0.1029
     29 H           3.0644    5.1276    0.0000 H       1  UNL1        0.1029
     30 H           4.3740    7.3184    0.0000 H       1  UNL1        0.1082
     31 H           3.9755    6.6281    0.0000 H       1  UNL1        0.1082
     32 H           6.5302    5.1532    0.0000 H       1  UNL1        0.0421
     33 H           6.9287    5.8434    0.0000 H       1  UNL1        0.0421
     34 H           3.0580    4.2981    0.0000 H       1  UNL1        0.0375
     35 H           3.4545    3.6053    0.0000 H       1  UNL1        0.0375
     36 H           6.9509    3.9939    0.0000 H       1  UNL1        0.0663
     37 H           4.0236    2.2736    0.0000 H       1  UNL1        0.0658
     38 H           7.7614    6.9264    0.0000 H       1  UNL1        0.0622
     39 H           7.7743    8.5922    0.0000 H       1  UNL1        0.0655
     40 H           5.1727    9.7744    0.0000 H       1  UNL1        0.0660
     41 H           4.5456   10.3871    0.0000 H       1  UNL1        0.0660
     42 H           3.9328    9.7600    0.0000 H       1  UNL1        0.0660
     43 H           6.7002    1.0917    0.0000 H       1  UNL1        0.0660
     44 H           7.3273    0.4789    0.0000 H       1  UNL1        0.0660
     45 H           7.9401    1.1061    0.0000 H       1  UNL1        0.0660
     46 H           4.3291    1.0715    0.0000 H       1  UNL1        0.0660
     47 H           4.1054    0.2237    0.0000 H       1  UNL1        0.0660
     48 H           4.9532    0.0000    0.0000 H       1  UNL1        0.0660
     49 H           7.5064    9.7726    0.0000 H       1  UNL1        0.0660
     50 H           7.7300   10.6204    0.0000 H       1  UNL1        0.0660
     51 H           6.8822   10.8441    0.0000 H       1  UNL1        0.0660
     52 H           1.0000    5.1648    0.0000 H       0  HOH0       -0.1290
@<TRIPOS>UNITY_ATOM_ATTR
5 1
charge -1
6 1
charge 1
@<TRIPOS>BOND
     1     1    16    1
     2     1    24    1
     3     2    20    1
     4     2    25    1
     5     3    21    1
     6     3    26    1
     7     4    22    1
     8     4    27    1
     9     5    52    1
    10     6     7    2
    11     6     8    1
    12     6     9    1
    13     7    10    1
    14     7    12    1
    15     8    11    1
    16     8    28    1
    17     8    29    1
    18     9    13    1
    19     9    30    1
    20     9    31    1
    21    10    15    1
    22    10    32    1
    23    10    33    1
    24    11    14    1
    25    11    34    1
    26    11    35    1
    27    12    14   ar
    28    12    17   ar
    29    13    15   ar
    30    13    16   ar
    31    14    18   ar
    32    15    19   ar
    33    16    22   ar
    34    17    20   ar
    35    17    36    1
    36    18    21   ar
    37    18    37    1
    38    19    23   ar
    39    19    38    1
    40    20    21   ar
    41    22    23   ar
    42    23    39    1
    43    24    40    1
    44    24    41    1
    45    24    42    1
    46    25    43    1
    47    25    44    1
    48    25    45    1
    49    26    46    1
    50    26    47    1
    51    26    48    1
    52    27    49    1
    53    27    50    1
    54    27    51    1
