@<TRIPOS>MOLECULE
IMPHY016522
 44 44 0 0 0
SMALL
GASTEIGER

@<TRIPOS>ATOM
      1 O           2.8090    3.5905    0.0000 O.2     1  UNL1       -0.4678
      2 C           7.0949    0.3168    0.0000 C.3     1  UNL1       -0.0531
      3 C           6.8870    1.2949    0.0000 C.3     1  UNL1       -0.0531
      4 C           8.0460    0.0078    0.0000 C.3     1  UNL1       -0.0531
      5 C           5.9360    1.6039    0.0000 C.3     1  UNL1       -0.0530
      6 C           8.2539   -0.9704    0.0000 C.3     1  UNL1       -0.0530
      7 C           5.7281    2.5821    0.0000 C.3     1  UNL1       -0.0527
      8 C           9.2050   -1.2794    0.0000 C.3     1  UNL1       -0.0522
      9 C           4.7770    2.8911    0.0000 C.3     1  UNL1       -0.0462
     10 C           9.4129   -2.2576    0.0000 C.3     1  UNL1       -0.0422
     11 C           4.5691    3.8692    0.0000 C.3     1  UNL1        0.0055
     12 C          10.3639   -2.5666    0.0000 C.3     1  UNL1        0.0089
     13 C           3.6180    4.1783    0.0000 C.ar    1  UNL1        0.1049
     14 C           3.3090    5.1293    0.0000 C.ar    1  UNL1       -0.0207
     15 C           2.3090    5.1293    0.0000 C.ar    1  UNL1       -0.0237
     16 C          10.5718   -3.5447    0.0000 C.1     1  UNL1       -0.1056
     17 C           2.0000    4.1783    0.0000 C.ar    1  UNL1        0.0921
     18 C          10.7798   -4.5229    0.0000 C.1     1  UNL1       -0.1192
     19 H           6.4753    0.2951    0.0000 H       1  UNL1        0.0265
     20 H           7.0086   -0.2972    0.0000 H       1  UNL1        0.0265
     21 H           7.5066    1.3166    0.0000 H       1  UNL1        0.0265
     22 H           6.9733    1.9089    0.0000 H       1  UNL1        0.0265
     23 H           8.6656    0.0294    0.0000 H       1  UNL1        0.0265
     24 H           8.1323    0.6217    0.0000 H       1  UNL1        0.0265
     25 H           5.3164    1.5823    0.0000 H       1  UNL1        0.0265
     26 H           5.8497    0.9900    0.0000 H       1  UNL1        0.0265
     27 H           7.6343   -0.9920    0.0000 H       1  UNL1        0.0265
     28 H           8.1676   -1.5844    0.0000 H       1  UNL1        0.0265
     29 H           6.3477    2.6037    0.0000 H       1  UNL1        0.0265
     30 H           5.8144    3.1960    0.0000 H       1  UNL1        0.0265
     31 H           9.8246   -1.2578    0.0000 H       1  UNL1        0.0266
     32 H           9.2912   -0.6654    0.0000 H       1  UNL1        0.0266
     33 H           4.1574    2.8695    0.0000 H       1  UNL1        0.0269
     34 H           4.6907    2.2771    0.0000 H       1  UNL1        0.0269
     35 H           8.7932   -2.2792    0.0000 H       1  UNL1        0.0274
     36 H           9.3266   -2.8715    0.0000 H       1  UNL1        0.0274
     37 H           5.1887    3.8909    0.0000 H       1  UNL1        0.0343
     38 H           4.6554    4.4832    0.0000 H       1  UNL1        0.0343
     39 H          10.9836   -2.5449    0.0000 H       1  UNL1        0.0397
     40 H          10.4502   -1.9526    0.0000 H       1  UNL1        0.0397
     41 H           3.6734    5.6309    0.0000 H       1  UNL1        0.0652
     42 H           1.9446    5.6309    0.0000 H       1  UNL1        0.0649
     43 H           1.4103    3.9867    0.0000 H       1  UNL1        0.1029
     44 H          10.9087   -5.1293    0.0000 H       1  UNL1        0.1228
@<TRIPOS>BOND
     1     1    13   ar
     2     1    17   ar
     3     2     3    1
     4     2     4    1
     5     2    19    1
     6     2    20    1
     7     3     5    1
     8     3    21    1
     9     3    22    1
    10     4     6    1
    11     4    23    1
    12     4    24    1
    13     5     7    1
    14     5    25    1
    15     5    26    1
    16     6     8    1
    17     6    27    1
    18     6    28    1
    19     7     9    1
    20     7    29    1
    21     7    30    1
    22     8    10    1
    23     8    31    1
    24     8    32    1
    25     9    11    1
    26     9    33    1
    27     9    34    1
    28    10    12    1
    29    10    35    1
    30    10    36    1
    31    11    13    1
    32    11    37    1
    33    11    38    1
    34    12    16    1
    35    12    39    1
    36    12    40    1
    37    13    14   ar
    38    14    15   ar
    39    14    41    1
    40    15    17   ar
    41    15    42    1
    42    16    18    3
    43    17    43    1
    44    18    44    1
