@<TRIPOS>MOLECULE
IMPHY015183
 40 40 0 0 0
SMALL
GASTEIGER

@<TRIPOS>ATOM
      1 O           2.0000    0.0000    0.0000 O.2     1  UNL1       -0.3004
      2 C           4.5981    0.5000    0.0000 C.3     1  UNL1       -0.0188
      3 C           5.4641    0.0000    0.0000 C.3     1  UNL1       -0.0312
      4 C           3.7320    0.0000    0.0000 C.3     1  UNL1        0.0406
      5 C           5.4641   -1.0000    0.0000 C.3     1  UNL1       -0.0457
      6 C           4.5981   -1.5000    0.0000 C.3     1  UNL1       -0.0310
      7 C           3.7320   -1.0000    0.0000 C.2     1  UNL1       -0.0662
      8 C           6.3301    0.5000    0.0000 C.3     1  UNL1       -0.0312
      9 C           5.0981    1.3660    0.0000 C.3     1  UNL1       -0.0586
     10 C           4.0981    1.3660    0.0000 C.3     1  UNL1       -0.0586
     11 C           2.8660    0.5000    0.0000 C.2     1  UNL1        0.1278
     12 C           7.1962   -0.0000    0.0000 C.2     1  UNL1       -0.0850
     13 C           2.8660   -1.5000    0.0000 C.2     1  UNL1       -0.0988
     14 C           8.0622    0.5000    0.0000 C.2     1  UNL1       -0.0796
     15 C           8.9282   -0.0000    0.0000 C.3     1  UNL1       -0.0440
     16 C           8.0622    1.5000    0.0000 C.3     1  UNL1       -0.0440
     17 H           5.4641    0.6200    0.0000 H       1  UNL1        0.0309
     18 H           3.7320    0.6200    0.0000 H       1  UNL1        0.0425
     19 H           5.6762   -1.5826    0.0000 H       1  UNL1        0.0271
     20 H           6.0747   -0.8923    0.0000 H       1  UNL1        0.0271
     21 H           4.1996   -1.9750    0.0000 H       1  UNL1        0.0310
     22 H           4.9966   -1.9750    0.0000 H       1  UNL1        0.0310
     23 H           6.7287    0.9749    0.0000 H       1  UNL1        0.0310
     24 H           5.9316    0.9749    0.0000 H       1  UNL1        0.0310
     25 H           5.6350    1.0560    0.0000 H       1  UNL1        0.0235
     26 H           5.4081    1.9030    0.0000 H       1  UNL1        0.0235
     27 H           4.5611    1.6760    0.0000 H       1  UNL1        0.0235
     28 H           4.6350    1.6760    0.0000 H       1  UNL1        0.0235
     29 H           3.7881    1.9030    0.0000 H       1  UNL1        0.0235
     30 H           3.5611    1.0560    0.0000 H       1  UNL1        0.0235
     31 H           2.8660    1.1200    0.0000 H       1  UNL1        0.1033
     32 H           7.1962   -0.6200    0.0000 H       1  UNL1        0.0572
     33 H           2.3291   -1.1900    0.0000 H       1  UNL1        0.0535
     34 H           2.8660   -2.1200    0.0000 H       1  UNL1        0.0535
     35 H           8.6182   -0.5369    0.0000 H       1  UNL1        0.0274
     36 H           9.4651   -0.3100    0.0000 H       1  UNL1        0.0274
     37 H           9.2382    0.5369    0.0000 H       1  UNL1        0.0274
     38 H           8.6822    1.5000    0.0000 H       1  UNL1        0.0274
     39 H           8.0622    2.1200    0.0000 H       1  UNL1        0.0274
     40 H           7.4422    1.5000    0.0000 H       1  UNL1        0.0274
@<TRIPOS>BOND
     1     1    11    2
     2     2     3    1
     3     2     4    1
     4     2     9    1
     5     2    10    1
     6     3     5    1
     7     3     8    1
     8     3    17    1
     9     4     7    1
    10     4    11    1
    11     4    18    1
    12     5     6    1
    13     5    19    1
    14     5    20    1
    15     6     7    1
    16     6    21    1
    17     6    22    1
    18     7    13    2
    19     8    12    1
    20     8    23    1
    21     8    24    1
    22     9    25    1
    23     9    26    1
    24     9    27    1
    25    10    28    1
    26    10    29    1
    27    10    30    1
    28    11    31    1
    29    12    14    2
    30    12    32    1
    31    13    33    1
    32    13    34    1
    33    14    15    1
    34    14    16    1
    35    15    35    1
    36    15    36    1
    37    15    37    1
    38    16    38    1
    39    16    39    1
    40    16    40    1
