@<TRIPOS>MOLECULE
IMPHY008298
 98 101 0 0 0
SMALL
GASTEIGER

@<TRIPOS>ATOM
      1 O           6.0010   -3.6997    0.0000 O.3     1  UNL1       -0.3481
      2 O           4.2690   -3.6997    0.0000 O.3     1  UNL1       -0.3405
      3 O           6.0010   -5.6997    0.0000 O.3     1  UNL1       -0.3841
      4 O           4.2690   -6.6997    0.0000 O.3     1  UNL1       -0.3864
      5 O           2.5369   -5.6997    0.0000 O.3     1  UNL1       -0.3865
      6 O          11.9416    2.9894    0.0000 O.3     1  UNL1       -0.3446
      7 O           2.5369   -2.6997    0.0000 O.3     1  UNL1       -0.3924
      8 O          10.4517    3.8727    0.0000 O.3     1  UNL1       -0.3405
      9 O          12.9615    4.7098    0.0000 O.3     1  UNL1       -0.3841
     10 O          11.9816    6.4533    0.0000 O.3     1  UNL1       -0.3864
     11 O           9.9818    6.4764    0.0000 O.3     1  UNL1       -0.3865
     12 O           8.4719    5.6278    0.0000 O.3     1  UNL1       -0.3924
     13 C           8.3671   -1.3337    0.0000 C.3     1  UNL1       -0.0222
     14 C           7.3671   -1.3337    0.0000 C.3     1  UNL1       -0.0273
     15 C           6.8671   -2.1997    0.0000 C.3     1  UNL1       -0.0052
     16 C           8.9017   -0.4398    0.0000 C.3     1  UNL1       -0.0142
     17 C           8.8671   -2.1997    0.0000 C.3     1  UNL1       -0.0468
     18 C           6.8324   -0.4398    0.0000 C.3     1  UNL1       -0.0454
     19 C           7.3671   -3.0658    0.0000 C.3     1  UNL1       -0.0452
     20 C           8.3671   -3.0658    0.0000 C.3     1  UNL1       -0.0520
     21 C           9.3671   -1.3337    0.0000 C.3     1  UNL1       -0.0587
     22 C           7.3462    0.4663    0.0000 C.3     1  UNL1       -0.0314
     23 C           8.3879    0.4663    0.0000 C.2     1  UNL1       -0.0730
     24 C           6.0010   -2.6997    0.0000 C.3     1  UNL1        0.0564
     25 C           6.0010   -1.6997    0.0000 C.3     1  UNL1       -0.0572
     26 C           9.9017   -0.4513    0.0000 C.3     1  UNL1       -0.0423
     27 C          10.4116    0.4089    0.0000 C.3     1  UNL1       -0.0314
     28 C           8.8912    1.3304    0.0000 C.2     1  UNL1       -0.0992
     29 C           5.1350   -4.1997    0.0000 C.3     1  UNL1        0.1879
     30 C          11.4116    0.3973    0.0000 C.2     1  UNL1       -0.0744
     31 C           5.1350   -5.1997    0.0000 C.3     1  UNL1        0.1341
     32 C           4.2690   -5.6997    0.0000 C.3     1  UNL1        0.1141
     33 C           3.4030   -4.1997    0.0000 C.3     1  UNL1        0.1130
     34 C          11.9015   -0.4745    0.0000 C.3     1  UNL1       -0.0437
     35 C           3.4030   -5.1997    0.0000 C.3     1  UNL1        0.1119
     36 C          11.9216    1.2575    0.0000 C.2     1  UNL1       -0.0596
     37 C           2.5369   -3.6997    0.0000 C.3     1  UNL1        0.0730
     38 C          11.4316    2.1292    0.0000 C.3     1  UNL1        0.0692
     39 C          11.4516    3.8612    0.0000 C.3     1  UNL1        0.1882
     40 C          11.9616    4.7214    0.0000 C.3     1  UNL1        0.1341
     41 C          11.4717    5.5931    0.0000 C.3     1  UNL1        0.1141
     42 C          10.4717    5.6047    0.0000 C.3     1  UNL1        0.1119
     43 C           9.9617    4.7445    0.0000 C.3     1  UNL1        0.1130
     44 C           8.9618    4.7560    0.0000 C.3     1  UNL1        0.0730
     45 H           6.7471   -1.3385    0.0000 H       1  UNL1        0.0312
     46 H           9.2169    0.0942    0.0000 H       1  UNL1        0.0351
     47 H           9.3420   -2.5983    0.0000 H       1  UNL1        0.0271
     48 H           9.3420   -1.8012    0.0000 H       1  UNL1        0.0271
     49 H           6.3534   -0.0461    0.0000 H       1  UNL1        0.0271
     50 H           6.3626   -0.8444    0.0000 H       1  UNL1        0.0271
     51 H           6.7844   -3.2778    0.0000 H       1  UNL1        0.0271
     52 H           7.4747   -3.6763    0.0000 H       1  UNL1        0.0271
     53 H           8.2594   -3.6763    0.0000 H       1  UNL1        0.0266
     54 H           8.9497   -3.2778    0.0000 H       1  UNL1        0.0266
     55 H           9.3671   -1.9537    0.0000 H       1  UNL1        0.0235
     56 H           9.9871   -1.3337    0.0000 H       1  UNL1        0.0235
     57 H           9.3671   -0.7137    0.0000 H       1  UNL1        0.0235
     58 H           7.4523    1.0772    0.0000 H       1  UNL1        0.0310
     59 H           6.7626    0.6754    0.0000 H       1  UNL1        0.0310
     60 H           5.7890   -2.1171    0.0000 H       1  UNL1        0.0566
     61 H           5.3905   -2.8074    0.0000 H       1  UNL1        0.0566
     62 H           6.3110   -1.1628    0.0000 H       1  UNL1        0.0236
     63 H           5.4641   -1.3897    0.0000 H       1  UNL1        0.0236
     64 H           5.6910   -2.2367    0.0000 H       1  UNL1        0.0236
     65 H           9.7869   -1.0606    0.0000 H       1  UNL1        0.0274
     66 H          10.4818   -0.6701    0.0000 H       1  UNL1        0.0274
     67 H          10.5264    1.0182    0.0000 H       1  UNL1        0.0310
     68 H           9.8315    0.6276    0.0000 H       1  UNL1        0.0310
     69 H           9.5112    1.3280    0.0000 H       1  UNL1        0.0534
     70 H           8.5833    1.8685    0.0000 H       1  UNL1        0.0534
     71 H           5.1350   -3.5797    0.0000 H       1  UNL1        0.0937
     72 H           5.6720   -4.8897    0.0000 H       1  UNL1        0.0671
     73 H           4.8059   -6.0097    0.0000 H       1  UNL1        0.0648
     74 H           3.4030   -3.5797    0.0000 H       1  UNL1        0.0647
     75 H          11.3610   -0.7782    0.0000 H       1  UNL1        0.0274
     76 H          12.2053   -1.0149    0.0000 H       1  UNL1        0.0274
     77 H          12.4420   -0.1707    0.0000 H       1  UNL1        0.0274
     78 H           2.8660   -4.8897    0.0000 H       1  UNL1        0.0647
     79 H          12.5415    1.2503    0.0000 H       1  UNL1        0.0594
     80 H           6.5380   -5.3897    0.0000 H       1  UNL1        0.2101
     81 H           1.9264   -3.5921    0.0000 H       1  UNL1        0.0584
     82 H           2.3249   -4.2823    0.0000 H       1  UNL1        0.0584
     83 H          10.9613    2.5332    0.0000 H       1  UNL1        0.0605
     84 H          10.9521    1.7362    0.0000 H       1  UNL1        0.0605
     85 H           3.7320   -7.0097    0.0000 H       1  UNL1        0.2100
     86 H           2.0000   -5.3897    0.0000 H       1  UNL1        0.2100
     87 H          12.0716    3.8540    0.0000 H       1  UNL1        0.0938
     88 H           2.0000   -2.3897    0.0000 H       1  UNL1        0.2095
     89 H          12.2778    5.2547    0.0000 H       1  UNL1        0.0671
     90 H          11.1679    6.1336    0.0000 H       1  UNL1        0.0648
     91 H          10.7879    6.1380    0.0000 H       1  UNL1        0.0647
     92 H           9.6456    4.2112    0.0000 H       1  UNL1        0.0647
     93 H           8.3768    4.5507    0.0000 H       1  UNL1        0.0584
     94 H           9.0624    4.1443    0.0000 H       1  UNL1        0.0584
     95 H          13.2777    5.2431    0.0000 H       1  UNL1        0.2101
     96 H          11.6779    6.9938    0.0000 H       1  UNL1        0.2100
     97 H          10.2980    7.0097    0.0000 H       1  UNL1        0.2100
     98 H           7.8519    5.6350    0.0000 H       1  UNL1        0.2095
@<TRIPOS>BOND
     1     1    24    1
     2     1    29    1
     3     2    29    1
     4     2    33    1
     5     3    31    1
     6     3    80    1
     7     4    32    1
     8     4    85    1
     9     5    35    1
    10     5    86    1
    11     6    38    1
    12     6    39    1
    13     7    37    1
    14     7    88    1
    15     8    39    1
    16     8    43    1
    17     9    40    1
    18     9    95    1
    19    10    41    1
    20    10    96    1
    21    11    42    1
    22    11    97    1
    23    12    44    1
    24    12    98    1
    25    13    14    1
    26    13    16    1
    27    13    17    1
    28    13    21    1
    29    14    15    1
    30    14    18    1
    31    14    45    1
    32    15    19    1
    33    15    24    1
    34    15    25    1
    35    16    23    1
    36    16    26    1
    37    16    46    1
    38    17    20    1
    39    17    47    1
    40    17    48    1
    41    18    22    1
    42    18    49    1
    43    18    50    1
    44    19    20    1
    45    19    51    1
    46    19    52    1
    47    20    53    1
    48    20    54    1
    49    21    55    1
    50    21    56    1
    51    21    57    1
    52    22    23    1
    53    22    58    1
    54    22    59    1
    55    23    28    2
    56    24    60    1
    57    24    61    1
    58    25    62    1
    59    25    63    1
    60    25    64    1
    61    26    27    1
    62    26    65    1
    63    26    66    1
    64    27    30    1
    65    27    67    1
    66    27    68    1
    67    28    69    1
    68    28    70    1
    69    29    31    1
    70    29    71    1
    71    30    34    1
    72    30    36    2
    73    31    32    1
    74    31    72    1
    75    32    35    1
    76    32    73    1
    77    33    35    1
    78    33    37    1
    79    33    74    1
    80    34    75    1
    81    34    76    1
    82    34    77    1
    83    35    78    1
    84    36    38    1
    85    36    79    1
    86    37    81    1
    87    37    82    1
    88    38    83    1
    89    38    84    1
    90    39    40    1
    91    39    87    1
    92    40    41    1
    93    40    89    1
    94    41    42    1
    95    41    90    1
    96    42    43    1
    97    42    91    1
    98    43    44    1
    99    43    92    1
   100    44    93    1
   101    44    94    1
