@<TRIPOS>MOLECULE
IMPHY005112
 107 108 0 0 0
SMALL
GASTEIGER

@<TRIPOS>ATOM
      1 O          13.9253   -2.2985    0.0000 O.3     1  UNL1       -0.3683
      2 O          15.8933   -2.9979    0.0000 O.3     1  UNL1       -0.3891
      3 O          11.9573   -2.9979    0.0000 O.3     1  UNL1       -0.3892
      4 O          17.5875   -2.6378    0.0000 O.3     1  UNL1       -0.3917
      5 O          21.3032    0.7079    0.0000 O.3     1  UNL1       -0.3918
      6 O          24.6916    1.4281    0.0000 O.3     1  UNL1       -0.3915
      7 O          28.0719    1.4682    0.0000 O.3     1  UNL1       -0.4542
      8 O          27.9786   -0.3114    0.0000 O.2     1  UNL1       -0.2453
      9 C          14.7343   -1.7107    0.0000 C.3     1  UNL1        0.0851
     10 C          13.1163   -1.7107    0.0000 C.3     1  UNL1        0.0850
     11 C          14.4253   -0.7597    0.0000 C.3     1  UNL1       -0.0217
     12 C          13.4253   -0.7597    0.0000 C.3     1  UNL1       -0.0217
     13 C          15.6854   -2.0197    0.0000 C.3     1  UNL1        0.0837
     14 C          12.1652   -2.0197    0.0000 C.3     1  UNL1        0.0813
     15 C          16.4285   -1.3506    0.0000 C.3     1  UNL1        0.0017
     16 C          11.4221   -1.3506    0.0000 C.3     1  UNL1       -0.0244
     17 C          17.3796   -1.6596    0.0000 C.3     1  UNL1        0.0577
     18 C          10.4710   -1.6596    0.0000 C.3     1  UNL1       -0.0506
     19 C          18.1227   -0.9905    0.0000 C.3     1  UNL1       -0.0268
     20 C           9.7279   -0.9905    0.0000 C.3     1  UNL1       -0.0530
     21 C          19.0738   -1.2995    0.0000 C.3     1  UNL1       -0.0506
     22 C           8.7768   -1.2995    0.0000 C.3     1  UNL1       -0.0531
     23 C          19.8169   -0.6304    0.0000 C.3     1  UNL1       -0.0506
     24 C          20.7680   -0.9394    0.0000 C.3     1  UNL1       -0.0269
     25 C           8.0337   -0.6304    0.0000 C.3     1  UNL1       -0.0531
     26 C          21.5111   -0.2703    0.0000 C.3     1  UNL1        0.0553
     27 C           7.0826   -0.9394    0.0000 C.3     1  UNL1       -0.0531
     28 C          22.4622   -0.5793    0.0000 C.3     1  UNL1       -0.0268
     29 C          23.2053    0.0898    0.0000 C.3     1  UNL1       -0.0484
     30 C           6.3395   -0.2703    0.0000 C.3     1  UNL1       -0.0531
     31 C          24.1564   -0.2192    0.0000 C.3     1  UNL1       -0.0265
     32 C           5.3884   -0.5793    0.0000 C.3     1  UNL1       -0.0531
     33 C          24.8995    0.4500    0.0000 C.3     1  UNL1        0.0594
     34 C           4.6453    0.0898    0.0000 C.3     1  UNL1       -0.0531
     35 C          25.8506    0.1409    0.0000 C.3     1  UNL1        0.0050
     36 C           3.6942   -0.2192    0.0000 C.3     1  UNL1       -0.0533
     37 C          26.5937    0.8101    0.0000 C.2     1  UNL1        0.0385
     38 C           2.9511    0.4500    0.0000 C.3     1  UNL1       -0.0559
     39 C          26.4892    1.8046    0.0000 C.2     1  UNL1       -0.0342
     40 C          27.4027    2.2113    0.0000 C.3     1  UNL1        0.1195
     41 C          27.5719    0.6022    0.0000 C.2     1  UNL1        0.3356
     42 C           2.0000    0.1409    0.0000 C.3     1  UNL1       -0.0653
     43 C          27.6106    3.1895    0.0000 C.3     1  UNL1       -0.0240
     44 H          14.8673   -2.5503    0.0000 H       1  UNL1        0.0622
     45 H          12.9833   -2.5503    0.0000 H       1  UNL1        0.0622
     46 H          15.0317   -0.6308    0.0000 H       1  UNL1        0.0292
     47 H          14.3605   -0.1431    0.0000 H       1  UNL1        0.0292
     48 H          13.4901   -0.1431    0.0000 H       1  UNL1        0.0292
     49 H          12.8188   -0.6308    0.0000 H       1  UNL1        0.0292
     50 H          16.2750   -2.2113    0.0000 H       1  UNL1        0.0620
     51 H          11.5756   -2.2113    0.0000 H       1  UNL1        0.0619
     52 H          16.7196   -0.8032    0.0000 H       1  UNL1        0.0316
     53 H          15.9399   -0.9689    0.0000 H       1  UNL1        0.0316
     54 H          11.9106   -0.9689    0.0000 H       1  UNL1        0.0291
     55 H          11.1310   -0.8032    0.0000 H       1  UNL1        0.0291
     56 H          17.9692   -1.8512    0.0000 H       1  UNL1        0.0594
     57 H           9.9824   -2.0413    0.0000 H       1  UNL1        0.0266
     58 H          10.7621   -2.2070    0.0000 H       1  UNL1        0.0266
     59 H          18.4138   -0.4431    0.0000 H       1  UNL1        0.0290
     60 H          17.6341   -0.6088    0.0000 H       1  UNL1        0.0290
     61 H          10.2164   -0.6088    0.0000 H       1  UNL1        0.0265
     62 H           9.4368   -0.4431    0.0000 H       1  UNL1        0.0265
     63 H          16.4829   -3.1895    0.0000 H       1  UNL1        0.2099
     64 H          18.7827   -1.8469    0.0000 H       1  UNL1        0.0266
     65 H          19.5623   -1.6812    0.0000 H       1  UNL1        0.0266
     66 H          11.3676   -3.1895    0.0000 H       1  UNL1        0.2099
     67 H           8.2882   -1.6812    0.0000 H       1  UNL1        0.0265
     68 H           9.0679   -1.8469    0.0000 H       1  UNL1        0.0265
     69 H          20.1080   -0.0830    0.0000 H       1  UNL1        0.0266
     70 H          19.3283   -0.2487    0.0000 H       1  UNL1        0.0266
     71 H          20.4769   -1.4868    0.0000 H       1  UNL1        0.0290
     72 H          21.2565   -1.3211    0.0000 H       1  UNL1        0.0290
     73 H           8.5222   -0.2487    0.0000 H       1  UNL1        0.0265
     74 H           7.7426   -0.0830    0.0000 H       1  UNL1        0.0265
     75 H          18.1771   -2.8294    0.0000 H       1  UNL1        0.2098
     76 H          21.9719    0.1446    0.0000 H       1  UNL1        0.0593
     77 H           6.5940   -1.3211    0.0000 H       1  UNL1        0.0265
     78 H           7.3737   -1.4868    0.0000 H       1  UNL1        0.0265
     79 H          22.1711   -1.1267    0.0000 H       1  UNL1        0.0290
     80 H          22.9507   -0.9610    0.0000 H       1  UNL1        0.0290
     81 H          23.4964    0.6373    0.0000 H       1  UNL1        0.0267
     82 H          22.7167    0.4716    0.0000 H       1  UNL1        0.0267
     83 H           6.8280    0.1114    0.0000 H       1  UNL1        0.0265
     84 H           6.0484    0.2772    0.0000 H       1  UNL1        0.0265
     85 H          23.8653   -0.7666    0.0000 H       1  UNL1        0.0290
     86 H          24.6449   -0.6009    0.0000 H       1  UNL1        0.0290
     87 H           4.8998   -0.9610    0.0000 H       1  UNL1        0.0265
     88 H           5.6795   -1.1267    0.0000 H       1  UNL1        0.0265
     89 H          25.3603    0.8648    0.0000 H       1  UNL1        0.0596
     90 H           5.1338    0.4716    0.0000 H       1  UNL1        0.0265
     91 H           4.3542    0.6373    0.0000 H       1  UNL1        0.0265
     92 H          21.7639    1.1227    0.0000 H       1  UNL1        0.2098
     93 H          25.5595   -0.4065    0.0000 H       1  UNL1        0.0340
     94 H          26.3391   -0.2408    0.0000 H       1  UNL1        0.0340
     95 H           3.2056   -0.6009    0.0000 H       1  UNL1        0.0265
     96 H           3.9853   -0.7666    0.0000 H       1  UNL1        0.0265
     97 H           3.4396    0.8317    0.0000 H       1  UNL1        0.0263
     98 H           2.6600    0.9974    0.0000 H       1  UNL1        0.0263
     99 H          24.1019    1.6197    0.0000 H       1  UNL1        0.2098
    100 H          25.9522    2.1146    0.0000 H       1  UNL1        0.0613
    101 H          28.0016    2.3718    0.0000 H       1  UNL1        0.0777
    102 H           1.8084    0.7306    0.0000 H       1  UNL1        0.0230
    103 H           1.4103   -0.0506    0.0000 H       1  UNL1        0.0230
    104 H           2.1916   -0.4487    0.0000 H       1  UNL1        0.0230
    105 H          28.2171    3.0606    0.0000 H       1  UNL1        0.0268
    106 H          27.7395    3.7959    0.0000 H       1  UNL1        0.0268
    107 H          27.0042    3.3184    0.0000 H       1  UNL1        0.0268
@<TRIPOS>BOND
     1     1     9    1
     2     1    10    1
     3    13     2    1
     4     2    63    1
     5    14     3    1
     6     3    66    1
     7     4    17    1
     8     4    75    1
     9     5    26    1
    10     5    92    1
    11     6    33    1
    12     6    99    1
    13     7    40    1
    14     7    41    1
    15     8    41    2
    16     9    11    1
    17     9    13    1
    18     9    44    1
    19    10    12    1
    20    10    14    1
    21    10    45    1
    22    11    12    1
    23    11    46    1
    24    11    47    1
    25    12    48    1
    26    12    49    1
    27    13    15    1
    28    13    50    1
    29    14    16    1
    30    14    51    1
    31    15    17    1
    32    15    52    1
    33    15    53    1
    34    16    18    1
    35    16    54    1
    36    16    55    1
    37    17    19    1
    38    17    56    1
    39    18    20    1
    40    18    57    1
    41    18    58    1
    42    19    21    1
    43    19    59    1
    44    19    60    1
    45    20    22    1
    46    20    61    1
    47    20    62    1
    48    21    23    1
    49    21    64    1
    50    21    65    1
    51    22    25    1
    52    22    67    1
    53    22    68    1
    54    23    24    1
    55    23    69    1
    56    23    70    1
    57    24    26    1
    58    24    71    1
    59    24    72    1
    60    25    27    1
    61    25    73    1
    62    25    74    1
    63    26    28    1
    64    26    76    1
    65    27    30    1
    66    27    77    1
    67    27    78    1
    68    28    29    1
    69    28    79    1
    70    28    80    1
    71    29    31    1
    72    29    81    1
    73    29    82    1
    74    30    32    1
    75    30    83    1
    76    30    84    1
    77    31    33    1
    78    31    85    1
    79    31    86    1
    80    32    34    1
    81    32    87    1
    82    32    88    1
    83    33    35    1
    84    33    89    1
    85    34    36    1
    86    34    90    1
    87    34    91    1
    88    35    37    1
    89    35    93    1
    90    35    94    1
    91    36    38    1
    92    36    95    1
    93    36    96    1
    94    37    39    2
    95    37    41    1
    96    38    42    1
    97    38    97    1
    98    38    98    1
    99    39    40    1
   100    39   100    1
   101    40    43    1
   102    40   101    1
   103    42   102    1
   104    42   103    1
   105    42   104    1
   106    43   105    1
   107    43   106    1
   108    43   107    1
