@<TRIPOS>MOLECULE
IMPHY016864
 39 38 0 0 0
SMALL
GASTEIGER

@<TRIPOS>ATOM
      1 O           4.5981   -0.7500    0.0000 O.2     1  UNL1       -0.2970
      2 O           2.8660   -0.7500    0.0000 O.2     1  UNL1       -0.2973
      3 C           6.3301    0.2500    0.0000 C.3     1  UNL1       -0.0372
      4 C           7.1962    0.7500    0.0000 C.3     1  UNL1       -0.0501
      5 C           8.0622    0.2500    0.0000 C.3     1  UNL1       -0.0526
      6 C           8.9282    0.7500    0.0000 C.3     1  UNL1       -0.0507
      7 C           9.7942    0.2500    0.0000 C.3     1  UNL1       -0.0467
      8 C           5.4641    0.7500    0.0000 C.3     1  UNL1        0.0088
      9 C           6.3301   -0.7500    0.0000 C.3     1  UNL1       -0.0620
     10 C          10.6603    0.7500    0.0000 C.3     1  UNL1       -0.0627
     11 C           9.7942   -0.7500    0.0000 C.3     1  UNL1       -0.0627
     12 C           4.5981    0.2500    0.0000 C.2     1  UNL1        0.1407
     13 C           3.7320    0.7500    0.0000 C.3     1  UNL1        0.0640
     14 C           2.8660    0.2500    0.0000 C.2     1  UNL1        0.1374
     15 C           2.0000    0.7500    0.0000 C.3     1  UNL1       -0.0056
     16 H           6.8671   -0.0600    0.0000 H       1  UNL1        0.0302
     17 H           7.5947    1.2250    0.0000 H       1  UNL1        0.0268
     18 H           6.7976    1.2250    0.0000 H       1  UNL1        0.0268
     19 H           7.6636   -0.2249    0.0000 H       1  UNL1        0.0265
     20 H           8.4607   -0.2249    0.0000 H       1  UNL1        0.0265
     21 H           9.3267    1.2250    0.0000 H       1  UNL1        0.0268
     22 H           8.5297    1.2250    0.0000 H       1  UNL1        0.0268
     23 H           9.2573   -0.0600    0.0000 H       1  UNL1        0.0295
     24 H           5.8626    1.2250    0.0000 H       1  UNL1        0.0344
     25 H           5.0656    1.2250    0.0000 H       1  UNL1        0.0344
     26 H           5.7101   -0.7500    0.0000 H       1  UNL1        0.0233
     27 H           6.3301   -1.3700    0.0000 H       1  UNL1        0.0233
     28 H           6.9501   -0.7500    0.0000 H       1  UNL1        0.0233
     29 H          10.9703    0.2131    0.0000 H       1  UNL1        0.0232
     30 H          11.1972    1.0600    0.0000 H       1  UNL1        0.0232
     31 H          10.3503    1.2869    0.0000 H       1  UNL1        0.0232
     32 H           9.1742   -0.7500    0.0000 H       1  UNL1        0.0232
     33 H           9.7942   -1.3700    0.0000 H       1  UNL1        0.0232
     34 H          10.4142   -0.7500    0.0000 H       1  UNL1        0.0232
     35 H           4.1306    1.2250    0.0000 H       1  UNL1        0.0419
     36 H           3.3335    1.2250    0.0000 H       1  UNL1        0.0419
     37 H           2.3100    1.2869    0.0000 H       1  UNL1        0.0306
     38 H           1.4631    1.0600    0.0000 H       1  UNL1        0.0306
     39 H           1.6900    0.2131    0.0000 H       1  UNL1        0.0306
@<TRIPOS>BOND
     1     1    12    2
     2     2    14    2
     3     3     4    1
     4     3     8    1
     5     3     9    1
     6     3    16    1
     7     4     5    1
     8     4    17    1
     9     4    18    1
    10     5     6    1
    11     5    19    1
    12     5    20    1
    13     6     7    1
    14     6    21    1
    15     6    22    1
    16     7    10    1
    17     7    11    1
    18     7    23    1
    19     8    12    1
    20     8    24    1
    21     8    25    1
    22     9    26    1
    23     9    27    1
    24     9    28    1
    25    10    29    1
    26    10    30    1
    27    10    31    1
    28    11    32    1
    29    11    33    1
    30    11    34    1
    31    12    13    1
    32    13    14    1
    33    13    35    1
    34    13    36    1
    35    14    15    1
    36    15    37    1
    37    15    38    1
    38    15    39    1
