@<TRIPOS>MOLECULE
IMPHY008254
 68 69 0 0 0
SMALL
GASTEIGER

@<TRIPOS>ATOM
      1 O           6.4103   -1.5368    0.0000 O.3     1  UNL1       -0.4535
      2 O           4.5981   -2.7320    0.0000 O.3     1  UNL1       -0.4545
      3 O           2.9889   -0.5629    0.0000 O.3     1  UNL1       -0.3851
      4 O           4.5981    1.2680    0.0000 O.3     1  UNL1       -0.4527
      5 O           4.7320   -0.2320    0.0000 O.2     1  UNL1       -0.2932
      6 O           7.9939   -0.7321    0.0000 O.2     1  UNL1       -0.2453
      7 O           6.3301   -2.7320    0.0000 O.2     1  UNL1       -0.2505
      8 O           6.0981    2.1340    0.0000 O.2     1  UNL1       -0.2505
      9 C           5.4641   -1.2320    0.0000 C.3     1  UNL1        0.1535
     10 C           5.4641   -0.2321    0.0000 C.3     1  UNL1        0.0750
     11 C           4.5981   -1.7320    0.0000 C.3     1  UNL1        0.1685
     12 C           3.7320   -1.2320    0.0000 C.3     1  UNL1        0.1035
     13 C           4.5981    0.2679    0.0000 C.3     1  UNL1        0.1711
     14 C           2.8660   -1.7320    0.0000 C.3     1  UNL1       -0.0206
     15 C           2.0000   -1.2320    0.0000 C.3     1  UNL1       -0.0497
     16 C           2.8660    0.2679    0.0000 C.3     1  UNL1        0.0184
     17 C           6.4103    0.0727    0.0000 C.2     1  UNL1        0.0402
     18 C           2.0000   -0.2321    0.0000 C.3     1  UNL1       -0.0435
     19 C           3.7320   -0.2321    0.0000 C.2     1  UNL1        0.1771
     20 C           4.6592   -0.8574    0.0000 C.3     1  UNL1       -0.0325
     21 C           6.9939   -0.7321    0.0000 C.2     1  UNL1        0.3355
     22 C           2.8660    1.2680    0.0000 C.3     1  UNL1       -0.0556
     23 C           7.1546    0.7405    0.0000 C.2     1  UNL1       -0.0882
     24 C           5.4641   -3.2320    0.0000 C.2     1  UNL1        0.3101
     25 C           5.0981    2.1340    0.0000 C.2     1  UNL1        0.3106
     26 C           5.4641   -4.2320    0.0000 C.3     1  UNL1        0.0508
     27 C           4.5981    3.0000    0.0000 C.3     1  UNL1        0.0534
     28 C           5.0981    3.8660    0.0000 C.3     1  UNL1       -0.0432
     29 C           6.3301   -4.7320    0.0000 C.3     1  UNL1       -0.0525
     30 C           4.5981   -4.7320    0.0000 C.3     1  UNL1       -0.0525
     31 C           3.5981    3.0000    0.0000 C.3     1  UNL1       -0.0523
     32 C           4.5981    4.7320    0.0000 C.3     1  UNL1       -0.0645
     33 H           5.5540   -2.0773    0.0000 H       1  UNL1        0.0780
     34 H           5.5540    0.6132    0.0000 H       1  UNL1        0.0429
     35 H           5.1350   -2.0420    0.0000 H       1  UNL1        0.0801
     36 H           5.1350    0.5779    0.0000 H       1  UNL1        0.0822
     37 H           2.4675   -2.2070    0.0000 H       1  UNL1        0.0294
     38 H           3.2646   -2.2070    0.0000 H       1  UNL1        0.0294
     39 H           1.3894   -1.1244    0.0000 H       1  UNL1        0.0266
     40 H           1.7880   -1.8147    0.0000 H       1  UNL1        0.0266
     41 H           3.4030    0.5779    0.0000 H       1  UNL1        0.0376
     42 H           1.7880    0.3506    0.0000 H       1  UNL1        0.0272
     43 H           1.3894   -0.3397    0.0000 H       1  UNL1        0.0272
     44 H           4.8915   -1.4323    0.0000 H       1  UNL1        0.0258
     45 H           5.2341   -0.6252    0.0000 H       1  UNL1        0.0258
     46 H           4.4270   -0.2826    0.0000 H       1  UNL1        0.0258
     47 H           2.3992   -0.7545    0.0000 H       1  UNL1        0.2103
     48 H           3.4860    1.2680    0.0000 H       1  UNL1        0.0236
     49 H           2.8660    1.8880    0.0000 H       1  UNL1        0.0236
     50 H           2.2460    1.2680    0.0000 H       1  UNL1        0.0236
     51 H           7.7440    0.5479    0.0000 H       1  UNL1        0.0540
     52 H           7.0268    1.3472    0.0000 H       1  UNL1        0.0540
     53 H           5.4641   -4.8520    0.0000 H       1  UNL1        0.0408
     54 H           4.2881    3.5369    0.0000 H       1  UNL1        0.0410
     55 H           5.5730    3.4675    0.0000 H       1  UNL1        0.0270
     56 H           5.5730    4.2646    0.0000 H       1  UNL1        0.0270
     57 H           6.0201   -5.2690    0.0000 H       1  UNL1        0.0237
     58 H           6.8671   -5.0420    0.0000 H       1  UNL1        0.0237
     59 H           6.6401   -4.1951    0.0000 H       1  UNL1        0.0237
     60 H           4.2881   -4.1951    0.0000 H       1  UNL1        0.0237
     61 H           4.0611   -5.0420    0.0000 H       1  UNL1        0.0237
     62 H           4.9081   -5.2690    0.0000 H       1  UNL1        0.0237
     63 H           3.5981    3.6200    0.0000 H       1  UNL1        0.0238
     64 H           2.9781    3.0000    0.0000 H       1  UNL1        0.0238
     65 H           3.5981    2.3800    0.0000 H       1  UNL1        0.0238
     66 H           5.1350    5.0420    0.0000 H       1  UNL1        0.0230
     67 H           4.2881    5.2690    0.0000 H       1  UNL1        0.0230
     68 H           4.0611    4.4220    0.0000 H       1  UNL1        0.0230
@<TRIPOS>BOND
     1     1     9    1
     2     1    21    1
     3    11     2    1
     4     2    24    1
     5    12     3    1
     6     3    47    1
     7    13     4    1
     8     4    25    1
     9     5    19    2
    10     6    21    2
    11     7    24    2
    12     8    25    2
    13     9    10    1
    14     9    11    1
    15     9    33    1
    16    10    13    1
    17    10    17    1
    18    10    34    1
    19    11    12    1
    20    11    35    1
    21    12    14    1
    22    12    20    1
    23    13    19    1
    24    13    36    1
    25    14    15    1
    26    14    37    1
    27    14    38    1
    28    15    18    1
    29    15    39    1
    30    15    40    1
    31    16    18    1
    32    16    19    1
    33    16    22    1
    34    16    41    1
    35    17    21    1
    36    17    23    2
    37    18    42    1
    38    18    43    1
    39    20    44    1
    40    20    45    1
    41    20    46    1
    42    22    48    1
    43    22    49    1
    44    22    50    1
    45    23    51    1
    46    23    52    1
    47    24    26    1
    48    25    27    1
    49    26    29    1
    50    26    30    1
    51    26    53    1
    52    27    28    1
    53    27    31    1
    54    27    54    1
    55    28    32    1
    56    28    55    1
    57    28    56    1
    58    29    57    1
    59    29    58    1
    60    29    59    1
    61    30    60    1
    62    30    61    1
    63    30    62    1
    64    31    63    1
    65    31    64    1
    66    31    65    1
    67    32    66    1
    68    32    67    1
    69    32    68    1
