@<TRIPOS>MOLECULE
IMPHY001778
 147 156 0 0 0
SMALL
GASTEIGER

@<TRIPOS>ATOM
      1 S           4.9580   -1.9722    0.0000 S.3     1  UNL1       -0.1480
      2 O           4.0443   -1.4513    0.0000 O.3     1  UNL1       -0.3836
      3 O           4.9603   -3.0238    0.0000 O.3     1  UNL1       -0.3836
      4 O           2.6200   -1.8690    0.0000 O.3     1  UNL1       -0.3848
      5 O           3.8943   -4.0568    0.0000 O.3     1  UNL1       -0.3848
      6 O           3.1525    2.1541    0.0000 O.2     1  UNL1       -0.2920
      7 O           7.6566   -5.5782    0.0000 O.2     1  UNL1       -0.2920
      8 O           9.2482    4.5091    0.0000 O.3     1  UNL1       -0.4574
      9 O          11.4141   -0.2908    0.0000 O.3     1  UNL1       -0.4574
     10 O          10.5373    5.6658    0.0000 O.2     1  UNL1       -0.2452
     11 O          11.7582    1.4067    0.0000 O.2     1  UNL1       -0.2452
     12 O          12.1837    5.1277    0.0000 O.3     1  UNL1       -0.3902
     13 O          14.6984    0.8107    0.0000 O.3     1  UNL1       -0.3902
     14 C           5.8361    0.5971    0.0000 C.3     1  UNL1       -0.0328
     15 C           7.6260   -2.4758    0.0000 C.3     1  UNL1       -0.0328
     16 C           6.7021    1.0971    0.0000 C.3     1  UNL1       -0.0322
     17 C           8.4882   -1.9691    0.0000 C.3     1  UNL1       -0.0322
     18 C           6.7021    2.0971    0.0000 C.3     1  UNL1       -0.0258
     19 C           9.3580   -2.4624    0.0000 C.3     1  UNL1       -0.0258
     20 C           4.9701    1.0971    0.0000 C.3     1  UNL1       -0.0227
     21 C           7.6338   -3.4757    0.0000 C.3     1  UNL1       -0.0227
     22 C           4.0601    0.5902    0.0000 C.3     1  UNL1        0.0656
     23 C           6.7440   -4.0173    0.0000 C.3     1  UNL1        0.0656
     24 C           7.6483    2.4018    0.0000 C.3     1  UNL1       -0.0294
     25 C          10.0899   -1.7897    0.0000 C.3     1  UNL1       -0.0294
     26 C           4.0520   -0.4514    0.0000 C.3     1  UNL1        0.1195
     27 C           5.8340   -3.5104    0.0000 C.3     1  UNL1        0.1195
     28 C           4.9541   -0.9722    0.0000 C.3     1  UNL1        0.0383
     29 C           5.8259   -2.4688    0.0000 C.3     1  UNL1        0.0383
     30 C           5.8522   -0.4444    0.0000 C.3     1  UNL1       -0.0350
     31 C           6.7280   -1.9480    0.0000 C.3     1  UNL1       -0.0350
     32 C           5.8361    2.5971    0.0000 C.3     1  UNL1       -0.0468
     33 C           9.3658   -3.4624    0.0000 C.3     1  UNL1       -0.0468
     34 C           4.9701    2.0971    0.0000 C.3     1  UNL1       -0.0484
     35 C           8.5036   -3.9690    0.0000 C.3     1  UNL1       -0.0484
     36 C           7.6483    0.7924    0.0000 C.3     1  UNL1       -0.0492
     37 C           8.6899   -0.9957    0.0000 C.3     1  UNL1       -0.0492
     38 C           8.2320    1.5971    0.0000 C.3     1  UNL1       -0.0491
     39 C           9.6778   -0.8850    0.0000 C.3     1  UNL1       -0.0491
     40 C           6.7021    3.0971    0.0000 C.3     1  UNL1       -0.0590
     41 C          10.2279   -2.9557    0.0000 C.3     1  UNL1       -0.0590
     42 C           7.9590    3.3524    0.0000 C.3     1  UNL1       -0.0030
     43 C          11.0700   -1.9883    0.0000 C.3     1  UNL1       -0.0030
     44 C           3.1166   -1.0011    0.0000 C.3     1  UNL1        0.1043
     45 C           4.8943   -4.0529    0.0000 C.3     1  UNL1        0.1043
     46 C           4.0678    1.5902    0.0000 C.3     1  UNL1       -0.0494
     47 C           7.6176   -4.5038    0.0000 C.3     1  UNL1       -0.0494
     48 C           3.1332    1.1543    0.0000 C.2     1  UNL1        0.1648
     49 C           6.7774   -5.1017    0.0000 C.2     1  UNL1        0.1648
     50 C           8.9375    3.5586    0.0000 C.3     1  UNL1        0.1099
     51 C          11.7320   -1.2389    0.0000 C.3     1  UNL1        0.1099
     52 C           2.1770   -0.4586    0.0000 C.2     1  UNL1       -0.0498
     53 C           4.9027   -5.1379    0.0000 C.2     1  UNL1       -0.0498
     54 C           2.1854    0.6264    0.0000 C.2     1  UNL1       -0.0200
     55 C           5.8506   -5.6658    0.0000 C.2     1  UNL1       -0.0200
     56 C           7.2912    4.0966    0.0000 C.3     1  UNL1       -0.0588
     57 C          11.3879   -2.9364    0.0000 C.3     1  UNL1       -0.0588
     58 C           9.6054    2.8143    0.0000 C.3     1  UNL1        0.0064
     59 C          12.7121   -1.4376    0.0000 C.3     1  UNL1        0.0064
     60 C          10.5839    3.0205    0.0000 C.2     1  UNL1       -0.0570
     61 C          13.3742   -0.6881    0.0000 C.2     1  UNL1       -0.0570
     62 C          10.2267    4.7153    0.0000 C.2     1  UNL1        0.3376
     63 C          12.0761    0.4586    0.0000 C.2     1  UNL1        0.3376
     64 C          10.8945    3.9710    0.0000 C.2     1  UNL1        0.0608
     65 C          13.0562    0.2600    0.0000 C.2     1  UNL1        0.0608
     66 C          11.2517    2.2762    0.0000 C.3     1  UNL1       -0.0428
     67 C          14.3543   -0.8868    0.0000 C.3     1  UNL1       -0.0428
     68 C          11.8730    4.1772    0.0000 C.3     1  UNL1        0.0759
     69 C          13.7183    1.0094    0.0000 C.3     1  UNL1        0.0759
     70 H           6.5755    0.1778    0.0000 H       1  UNL1        0.0307
     71 H           7.6260   -1.6258    0.0000 H       1  UNL1        0.0307
     72 H           6.7921    0.2519    0.0000 H       1  UNL1        0.0309
     73 H           7.7973   -1.4739    0.0000 H       1  UNL1        0.0309
     74 H           5.7062    1.5221    0.0000 H       1  UNL1        0.0314
     75 H           8.3666   -3.0451    0.0000 H       1  UNL1        0.0314
     76 H           8.4880    2.5337    0.0000 H       1  UNL1        0.0310
     77 H          10.6188   -1.1243    0.0000 H       1  UNL1        0.0310
     78 H           5.4928   -1.2791    0.0000 H       1  UNL1        0.0442
     79 H           5.8247   -1.8488    0.0000 H       1  UNL1        0.0442
     80 H           6.0702   -1.0248    0.0000 H       1  UNL1        0.0280
     81 H           6.4613   -0.3289    0.0000 H       1  UNL1        0.0280
     82 H           7.1290   -1.4751    0.0000 H       1  UNL1        0.0280
     83 H           6.3307   -1.4720    0.0000 H       1  UNL1        0.0280
     84 H           6.2346    3.0720    0.0000 H       1  UNL1        0.0271
     85 H           5.4376    3.0720    0.0000 H       1  UNL1        0.0271
     86 H           9.5823   -4.0433    0.0000 H       1  UNL1        0.0271
     87 H           9.9755   -3.3500    0.0000 H       1  UNL1        0.0271
     88 H           4.7580    2.6797    0.0000 H       1  UNL1        0.0268
     89 H           4.3595    1.9894    0.0000 H       1  UNL1        0.0268
     90 H           8.1088   -4.4470    0.0000 H       1  UNL1        0.0268
     91 H           8.9058   -4.4409    0.0000 H       1  UNL1        0.0268
     92 H           7.3973    0.2255    0.0000 H       1  UNL1        0.0268
     93 H           8.1857    0.4831    0.0000 H       1  UNL1        0.0268
     94 H           8.6860   -0.3757    0.0000 H       1  UNL1        0.0268
     95 H           8.0729   -0.9344    0.0000 H       1  UNL1        0.0268
     96 H           8.6928    1.1824    0.0000 H       1  UNL1        0.0268
     97 H           8.6928    2.0118    0.0000 H       1  UNL1        0.0268
     98 H          10.2659   -0.6887    0.0000 H       1  UNL1        0.0268
     99 H           9.5444   -0.2795    0.0000 H       1  UNL1        0.0268
    100 H           7.3221    3.0971    0.0000 H       1  UNL1        0.0235
    101 H           6.7021    3.7171    0.0000 H       1  UNL1        0.0235
    102 H           6.0821    3.0971    0.0000 H       1  UNL1        0.0235
    103 H           9.9220   -3.4950    0.0000 H       1  UNL1        0.0235
    104 H          10.7672   -3.2616    0.0000 H       1  UNL1        0.0235
    105 H          10.5337   -2.4164    0.0000 H       1  UNL1        0.0235
    106 H           8.1516    3.9417    0.0000 H       1  UNL1        0.0337
    107 H          11.6776   -2.1115    0.0000 H       1  UNL1        0.0337
    108 H           3.5576   -1.4369    0.0000 H       1  UNL1        0.0667
    109 H           4.7327   -3.4544    0.0000 H       1  UNL1        0.0667
    110 H           4.6878    1.5854    0.0000 H       1  UNL1        0.0240
    111 H           4.0726    2.2102    0.0000 H       1  UNL1        0.0240
    112 H           3.4478    1.5950    0.0000 H       1  UNL1        0.0240
    113 H           7.3159   -5.0455    0.0000 H       1  UNL1        0.0240
    114 H           8.1592   -4.8055    0.0000 H       1  UNL1        0.0240
    115 H           7.9193   -3.9622    0.0000 H       1  UNL1        0.0240
    116 H           3.7302   -1.9858    0.0000 H       1  UNL1        0.2104
    117 H           4.3404   -3.0334    0.0000 H       1  UNL1        0.2104
    118 H           9.7692    3.7338    0.0000 H       1  UNL1        0.0740
    119 H          10.8990   -1.0700    0.0000 H       1  UNL1        0.0740
    120 H           1.6389   -0.7665    0.0000 H       1  UNL1        0.0599
    121 H           4.3694   -5.4541    0.0000 H       1  UNL1        0.0599
    122 H           1.6520    0.9426    0.0000 H       1  UNL1        0.0650
    123 H           5.8625   -6.2857    0.0000 H       1  UNL1        0.0650
    124 H           7.7526    4.5107    0.0000 H       1  UNL1        0.0234
    125 H           6.8771    4.5581    0.0000 H       1  UNL1        0.0234
    126 H           6.8297    3.6826    0.0000 H       1  UNL1        0.0234
    127 H          10.8001   -3.1336    0.0000 H       1  UNL1        0.0234
    128 H          11.5851   -3.5242    0.0000 H       1  UNL1        0.0234
    129 H          11.9758   -2.7393    0.0000 H       1  UNL1        0.0234
    130 H           2.0000   -1.8715    0.0000 H       1  UNL1        0.2103
    131 H           3.5864   -4.5949    0.0000 H       1  UNL1        0.2103
    132 H           9.0790    2.4866    0.0000 H       1  UNL1        0.0346
    133 H           9.8366    2.2390    0.0000 H       1  UNL1        0.0346
    134 H          12.4853   -2.0146    0.0000 H       1  UNL1        0.0346
    135 H          13.2410   -1.7611    0.0000 H       1  UNL1        0.0346
    136 H          10.7902    1.8621    0.0000 H       1  UNL1        0.0275
    137 H          11.6658    1.8147    0.0000 H       1  UNL1        0.0275
    138 H          11.7132    2.6902    0.0000 H       1  UNL1        0.0275
    139 H          14.2311   -1.4944    0.0000 H       1  UNL1        0.0275
    140 H          14.9619   -1.0100    0.0000 H       1  UNL1        0.0275
    141 H          14.4774   -0.2792    0.0000 H       1  UNL1        0.0275
    142 H          11.8936    3.5576    0.0000 H       1  UNL1        0.0609
    143 H          12.4868    4.0899    0.0000 H       1  UNL1        0.0609
    144 H          13.9451    1.5864    0.0000 H       1  UNL1        0.0609
    145 H          13.1894    1.3330    0.0000 H       1  UNL1        0.0609
    146 H          12.7904    5.2556    0.0000 H       1  UNL1        0.2099
    147 H          15.1089    1.2754    0.0000 H       1  UNL1        0.2099
@<TRIPOS>BOND
     1    28     1    1
     2    29     1    1
     3    26     2    1
     4     2   116    1
     5    27     3    1
     6     3   117    1
     7    44     4    1
     8     4   130    1
     9    45     5    1
    10     5   131    1
    11     6    48    2
    12     7    49    2
    13     8    50    1
    14     8    62    1
    15     9    51    1
    16     9    63    1
    17    10    62    2
    18    11    63    2
    19    12    68    1
    20    12   146    1
    21    13    69    1
    22    13   147    1
    23    14    16    1
    24    14    20    1
    25    14    30    1
    26    14    70    1
    27    15    17    1
    28    15    21    1
    29    15    31    1
    30    15    71    1
    31    16    18    1
    32    16    36    1
    33    16    72    1
    34    17    19    1
    35    17    37    1
    36    17    73    1
    37    18    24    1
    38    18    32    1
    39    18    40    1
    40    19    25    1
    41    19    33    1
    42    19    41    1
    43    20    22    1
    44    20    34    1
    45    20    74    1
    46    21    23    1
    47    21    35    1
    48    21    75    1
    49    22    26    1
    50    22    46    1
    51    22    48    1
    52    23    27    1
    53    23    47    1
    54    23    49    1
    55    24    38    1
    56    24    42    1
    57    24    76    1
    58    25    39    1
    59    25    43    1
    60    25    77    1
    61    26    28    1
    62    26    44    1
    63    27    29    1
    64    27    45    1
    65    28    30    1
    66    28    78    1
    67    29    31    1
    68    29    79    1
    69    30    80    1
    70    30    81    1
    71    31    82    1
    72    31    83    1
    73    32    34    1
    74    32    84    1
    75    32    85    1
    76    33    35    1
    77    33    86    1
    78    33    87    1
    79    34    88    1
    80    34    89    1
    81    35    90    1
    82    35    91    1
    83    36    38    1
    84    36    92    1
    85    36    93    1
    86    37    39    1
    87    37    94    1
    88    37    95    1
    89    38    96    1
    90    38    97    1
    91    39    98    1
    92    39    99    1
    93    40   100    1
    94    40   101    1
    95    40   102    1
    96    41   103    1
    97    41   104    1
    98    41   105    1
    99    42    50    1
   100    42    56    1
   101    42   106    1
   102    43    51    1
   103    43    57    1
   104    43   107    1
   105    44    52    1
   106    44   108    1
   107    45    53    1
   108    45   109    1
   109    46   110    1
   110    46   111    1
   111    46   112    1
   112    47   113    1
   113    47   114    1
   114    47   115    1
   115    48    54    1
   116    49    55    1
   117    50    58    1
   118    50   118    1
   119    51    59    1
   120    51   119    1
   121    52    54    2
   122    52   120    1
   123    53    55    2
   124    53   121    1
   125    54   122    1
   126    55   123    1
   127    56   124    1
   128    56   125    1
   129    56   126    1
   130    57   127    1
   131    57   128    1
   132    57   129    1
   133    58    60    1
   134    58   132    1
   135    58   133    1
   136    59    61    1
   137    59   134    1
   138    59   135    1
   139    60    64    2
   140    60    66    1
   141    61    65    2
   142    61    67    1
   143    62    64    1
   144    63    65    1
   145    64    68    1
   146    65    69    1
   147    66   136    1
   148    66   137    1
   149    66   138    1
   150    67   139    1
   151    67   140    1
   152    67   141    1
   153    68   142    1
   154    68   143    1
   155    69   144    1
   156    69   145    1
