@<TRIPOS>MOLECULE
IMPHY013163
 62 65 0 0 0
SMALL
GASTEIGER

@<TRIPOS>ATOM
      1 O           3.9061   -2.3557    0.0000 O.3     1  UNL1       -0.4814
      2 O           7.4260   -2.3557    0.0000 O.2     1  UNL1       -0.4618
      3 O          11.7884    1.2131    0.0000 O.3     1  UNL1       -0.4751
      4 O           5.6660    0.6790    0.0000 O.3     1  UNL1       -0.5052
      5 O           7.4144    0.7136    0.0000 O.2     1  UNL1       -0.2863
      6 O          11.7961   -0.7869    0.0000 O.3     1  UNL1       -0.4913
      7 O          10.0525    2.2064    0.0000 O.3     1  UNL1       -0.4913
      8 C           3.0000   -1.8418    0.0000 C.3     1  UNL1        0.1235
      9 C           4.8000   -0.8210    0.0000 C.ar    1  UNL1        0.0588
     10 C           4.8000   -1.8210    0.0000 C.ar    1  UNL1        0.1359
     11 C           3.0000   -0.8002    0.0000 C.2     1  UNL1       -0.0408
     12 C           6.5320   -0.8210    0.0000 C.ar    1  UNL1        0.1066
     13 C           5.6660   -0.3210    0.0000 C.ar    1  UNL1        0.1418
     14 C           3.9061   -0.2864    0.0000 C.2     1  UNL1       -0.0478
     15 C           2.0000   -1.8457    0.0000 C.3     1  UNL1       -0.0215
     16 C           2.5033   -2.7098    0.0000 C.3     1  UNL1       -0.0215
     17 C           6.5320   -1.8210    0.0000 C.ar    1  UNL1        0.1454
     18 C           5.6660   -2.3210    0.0000 C.ar    1  UNL1        0.0239
     19 C           8.3321   -0.8002    0.0000 C.ar    1  UNL1        0.0646
     20 C           7.4260   -0.2864    0.0000 C.ar    1  UNL1        0.2037
     21 C           9.1962   -0.2969    0.0000 C.ar    1  UNL1       -0.0041
     22 C          12.6564    0.7165    0.0000 C.3     1  UNL1        0.1233
     23 C           8.3321   -1.8418    0.0000 C.ar    1  UNL1        0.1038
     24 C          10.9243    0.7098    0.0000 C.ar    1  UNL1        0.2046
     25 C          10.0641   -0.7935    0.0000 C.ar    1  UNL1       -0.0081
     26 C           9.1923    0.7031    0.0000 C.ar    1  UNL1       -0.0081
     27 C          10.9282   -0.2902    0.0000 C.ar    1  UNL1        0.1658
     28 C          10.0564    1.2065    0.0000 C.ar    1  UNL1        0.1658
     29 C          13.1530    1.5844    0.0000 C.3     1  UNL1       -0.0215
     30 C          12.1597   -0.1515    0.0000 C.3     1  UNL1       -0.0215
     31 C          13.5243    0.2198    0.0000 C.2     1  UNL1       -0.0487
     32 C          14.3884    0.7232    0.0000 C.2     1  UNL1       -0.0989
     33 C          11.8000   -1.7868    0.0000 C.3     1  UNL1        0.0790
     34 C          10.9166    2.7098    0.0000 C.3     1  UNL1        0.0790
     35 H           2.4643   -0.4881    0.0000 H       1  UNL1        0.0611
     36 H           3.9132    0.3336    0.0000 H       1  UNL1        0.0624
     37 H           1.9976   -1.2257    0.0000 H       1  UNL1        0.0271
     38 H           1.3800   -1.8481    0.0000 H       1  UNL1        0.0271
     39 H           2.0024   -2.4657    0.0000 H       1  UNL1        0.0271
     40 H           1.9652   -2.4018    0.0000 H       1  UNL1        0.0271
     41 H           2.1954   -3.2479    0.0000 H       1  UNL1        0.0271
     42 H           3.0415   -3.0177    0.0000 H       1  UNL1        0.0271
     43 H           5.6660   -2.9410    0.0000 H       1  UNL1        0.0691
     44 H           8.8678   -2.1539    0.0000 H       1  UNL1        0.1037
     45 H          10.0665   -1.4135    0.0000 H       1  UNL1        0.0661
     46 H           8.6542    1.0110    0.0000 H       1  UNL1        0.0661
     47 H          13.6912    1.2765    0.0000 H       1  UNL1        0.0271
     48 H          13.4610    2.1226    0.0000 H       1  UNL1        0.0271
     49 H          12.6149    1.8924    0.0000 H       1  UNL1        0.0271
     50 H          11.6216    0.1565    0.0000 H       1  UNL1        0.0271
     51 H          11.8518   -0.6896    0.0000 H       1  UNL1        0.0271
     52 H          12.6978   -0.4594    0.0000 H       1  UNL1        0.0271
     53 H           5.1291    0.9890    0.0000 H       1  UNL1        0.2922
     54 H          13.5267   -0.4002    0.0000 H       1  UNL1        0.0605
     55 H          14.9265    0.4152    0.0000 H       1  UNL1        0.0533
     56 H          14.3860    1.3432    0.0000 H       1  UNL1        0.0533
     57 H          11.1800   -1.7892    0.0000 H       1  UNL1        0.0660
     58 H          11.8024   -2.4068    0.0000 H       1  UNL1        0.0660
     59 H          12.4200   -1.7845    0.0000 H       1  UNL1        0.0660
     60 H          11.2287    2.1740    0.0000 H       1  UNL1        0.0660
     61 H          11.4524    3.0218    0.0000 H       1  UNL1        0.0660
     62 H          10.6046    3.2455    0.0000 H       1  UNL1        0.0660
@<TRIPOS>BOND
     1     1     8    1
     2     1    10    1
     3     2    17   ar
     4     2    23   ar
     5     3    22    1
     6     3    24    1
     7     4    13    1
     8     4    53    1
     9     5    20    2
    10     6    27    1
    11     6    33    1
    12     7    28    1
    13     7    34    1
    14     8    11    1
    15     8    15    1
    16     8    16    1
    17     9    10   ar
    18     9    13   ar
    19     9    14    1
    20    10    18   ar
    21    11    14    2
    22    11    35    1
    23    12    13   ar
    24    12    17   ar
    25    12    20   ar
    26    14    36    1
    27    15    37    1
    28    15    38    1
    29    15    39    1
    30    16    40    1
    31    16    41    1
    32    16    42    1
    33    17    18   ar
    34    18    43    1
    35    19    20   ar
    36    19    21    1
    37    19    23   ar
    38    21    25   ar
    39    21    26   ar
    40    22    29    1
    41    22    30    1
    42    22    31    1
    43    23    44    1
    44    24    27   ar
    45    24    28   ar
    46    25    27   ar
    47    25    45    1
    48    26    28   ar
    49    26    46    1
    50    29    47    1
    51    29    48    1
    52    29    49    1
    53    30    50    1
    54    30    51    1
    55    30    52    1
    56    31    32    2
    57    31    54    1
    58    32    55    1
    59    32    56    1
    60    33    57    1
    61    33    58    1
    62    33    59    1
    63    34    60    1
    64    34    61    1
    65    34    62    1
