@<TRIPOS>MOLECULE
IMPHY005565
 43 46 0 0 0
SMALL
GASTEIGER

@<TRIPOS>ATOM
      1 O           4.8370   -1.7436    0.0000 O.3     1  UNL1       -0.4529
      2 O           6.4189   -2.5518    0.0000 O.2     1  UNL1       -0.2452
      3 O           7.3003    0.4876    0.0000 O.2     1  UNL1       -0.4570
      4 O           8.5625    1.7455    0.0000 O.3     1  UNL1       -0.4177
      5 O          10.1517    2.5518    0.0000 O.2     1  UNL1       -0.2452
      6 C           5.3364   -0.2112    0.0000 C.3     1  UNL1        0.0385
      7 C           4.5274   -0.7990    0.0000 C.3     1  UNL1        0.1323
      8 C           3.7183   -0.2112    0.0000 C.2     1  UNL1       -0.0269
      9 C           4.0274    0.7399    0.0000 C.2     1  UNL1       -0.0659
     10 C           5.0274    0.7399    0.0000 C.3     1  UNL1       -0.0205
     11 C           2.7029   -0.4434    0.0000 C.3     1  UNL1       -0.0190
     12 C           3.3424    1.5246    0.0000 C.3     1  UNL1       -0.0313
     13 C           2.0000    0.3253    0.0000 C.3     1  UNL1       -0.0464
     14 C           2.3219    1.3159    0.0000 C.3     1  UNL1       -0.0488
     15 C           6.1391   -0.7976    0.0000 C.2     1  UNL1        0.0780
     16 C           2.4049   -1.3980    0.0000 C.3     1  UNL1       -0.0586
     17 C           5.8311   -1.7427    0.0000 C.2     1  UNL1        0.3391
     18 C           7.0907   -0.4902    0.0000 C.2     1  UNL1        0.0997
     19 C           8.2519    0.7950    0.0000 C.3     1  UNL1        0.2661
     20 C           9.0599    0.2058    0.0000 C.2     1  UNL1        0.0058
     21 C           9.8699    0.7922    0.0000 C.2     1  UNL1        0.0366
     22 C           9.5625    1.7438    0.0000 C.2     1  UNL1        0.3379
     23 C          10.8204    0.4815    0.0000 C.3     1  UNL1       -0.0330
     24 H           6.0247    0.2875    0.0000 H       1  UNL1        0.0394
     25 H           3.8403   -1.2995    0.0000 H       1  UNL1        0.0788
     26 H           5.6338    0.8688    0.0000 H       1  UNL1        0.0317
     27 H           4.9626    1.3565    0.0000 H       1  UNL1        0.0317
     28 H           3.1240   -0.8985    0.0000 H       1  UNL1        0.0344
     29 H           3.8724    1.8464    0.0000 H       1  UNL1        0.0310
     30 H           3.1160    2.1018    0.0000 H       1  UNL1        0.0310
     31 H           1.4518    0.6149    0.0000 H       1  UNL1        0.0271
     32 H           1.6208   -0.1653    0.0000 H       1  UNL1        0.0271
     33 H           2.3034    1.9356    0.0000 H       1  UNL1        0.0268
     34 H           1.7081    1.4038    0.0000 H       1  UNL1        0.0268
     35 H           1.8131   -1.2132    0.0000 H       1  UNL1        0.0235
     36 H           2.2202   -1.9898    0.0000 H       1  UNL1        0.0235
     37 H           2.9968   -1.5828    0.0000 H       1  UNL1        0.0235
     38 H           7.5507   -0.9059    0.0000 H       1  UNL1        0.1030
     39 H           7.8142    1.2341    0.0000 H       1  UNL1        0.1257
     40 H           9.0588   -0.4142    0.0000 H       1  UNL1        0.0650
     41 H          10.6278   -0.1078    0.0000 H       1  UNL1        0.0280
     42 H          11.4097    0.2889    0.0000 H       1  UNL1        0.0280
     43 H          11.0130    1.0708    0.0000 H       1  UNL1        0.0280
@<TRIPOS>BOND
     1     1     7    1
     2     1    17    1
     3     2    17    2
     4     3    18    1
     5    19     3    1
     6     4    19    1
     7     4    22    1
     8     5    22    2
     9     6     7    1
    10     6    10    1
    11     6    15    1
    12     6    24    1
    13     7     8    1
    14     7    25    1
    15     8     9    2
    16     8    11    1
    17     9    10    1
    18     9    12    1
    19    10    26    1
    20    10    27    1
    21    11    13    1
    22    11    16    1
    23    11    28    1
    24    12    14    1
    25    12    29    1
    26    12    30    1
    27    13    14    1
    28    13    31    1
    29    13    32    1
    30    14    33    1
    31    14    34    1
    32    15    17    1
    33    15    18    2
    34    16    35    1
    35    16    36    1
    36    16    37    1
    37    18    38    1
    38    19    20    1
    39    19    39    1
    40    20    21    2
    41    20    40    1
    42    21    22    1
    43    21    23    1
    44    23    41    1
    45    23    42    1
    46    23    43    1
