@<TRIPOS>MOLECULE
IMPHY012469
 31 32 0 0 0
SMALL
GASTEIGER

@<TRIPOS>ATOM
      1 O           2.4750   -0.3888    0.0000 O.3     1  UNL1       -0.3909
      2 O           5.1615   -2.0748    0.0000 O.3     1  UNL1       -0.4676
      3 O           3.4305   -2.1353    0.0000 O.2     1  UNL1       -0.2504
      4 N           4.9869    2.2082    0.0000 N.3     1  UNL1       -0.2985
      5 C           5.4647    0.2597    0.0000 C.3     1  UNL1        0.0258
      6 C           5.7235    1.2256    0.0000 C.3     1  UNL1        0.0128
      7 C           4.2437   -0.6060    0.0000 C.3     1  UNL1        0.0977
      8 C           6.8636   -0.2491    0.0000 C.3     1  UNL1       -0.0351
      9 C           7.1225    0.7168    0.0000 C.3     1  UNL1       -0.0358
     10 C           3.6903    0.9145    0.0000 C.3     1  UNL1       -0.0103
     11 C           3.4146   -0.0468    0.0000 C.3     1  UNL1        0.0710
     12 C           4.4869    3.0742    0.0000 C.3     1  UNL1       -0.0122
     13 C           4.2786   -1.6054    0.0000 C.2     1  UNL1        0.3140
     14 C           5.1964   -3.0742    0.0000 C.3     1  UNL1        0.0817
     15 H           5.5475   -0.3548    0.0000 H       1  UNL1        0.0471
     16 H           6.0929    1.7236    0.0000 H       1  UNL1        0.0463
     17 H           3.7014   -0.9066    0.0000 H       1  UNL1        0.0455
     18 H           6.6687   -0.8377    0.0000 H       1  UNL1        0.0281
     19 H           7.4576   -0.4269    0.0000 H       1  UNL1        0.0281
     20 H           7.7164    0.5390    0.0000 H       1  UNL1        0.0281
     21 H           7.3174    1.3053    0.0000 H       1  UNL1        0.0281
     22 H           3.6852    1.5345    0.0000 H       1  UNL1        0.0305
     23 H           3.0760    0.9983    0.0000 H       1  UNL1        0.0305
     24 H           3.3391   -0.6622    0.0000 H       1  UNL1        0.0602
     25 H           5.0238    3.3842    0.0000 H       1  UNL1        0.0391
     26 H           4.1769    3.6112    0.0000 H       1  UNL1        0.0391
     27 H           3.9500    2.7642    0.0000 H       1  UNL1        0.0391
     28 H           2.0000    0.0097    0.0000 H       1  UNL1        0.2098
     29 H           4.5768   -3.0959    0.0000 H       1  UNL1        0.0661
     30 H           5.2181   -3.6939    0.0000 H       1  UNL1        0.0661
     31 H           5.8160   -3.0526    0.0000 H       1  UNL1        0.0661
@<TRIPOS>BOND
     1     1    11    1
     2     1    28    1
     3     2    13    1
     4     2    14    1
     5     3    13    2
     6     4     5    1
     7     4     6    1
     8     4    12    1
     9     5     7    1
    10     5     8    1
    11     5    15    1
    12     6     9    1
    13     6    10    1
    14     6    16    1
    15     7    11    1
    16     7    13    1
    17     7    17    1
    18     8     9    1
    19     8    18    1
    20     8    19    1
    21     9    20    1
    22     9    21    1
    23    10    11    1
    24    10    22    1
    25    10    23    1
    26    11    24    1
    27    12    25    1
    28    12    26    1
    29    12    27    1
    30    14    29    1
    31    14    30    1
    32    14    31    1
