@<TRIPOS>MOLECULE
IMPHY009173
 98 98 0 0 0
SMALL
GASTEIGER

@<TRIPOS>ATOM
      1 O           7.1962    1.5000    0.0000 O.2     1  UNL1       -0.2921
      2 O           2.8660    1.0000    0.0000 O.2     1  UNL1       -0.2977
      3 C          24.5167    0.5000    0.0000 C.3     1  UNL1       -0.0247
      4 C          23.6506    0.0000    0.0000 C.3     1  UNL1        0.0033
      5 C          25.3827    0.0000    0.0000 C.3     1  UNL1       -0.0436
      6 C          25.3827   -1.0000    0.0000 C.3     1  UNL1       -0.0340
      7 C          23.6506   -1.0000    0.0000 C.2     1  UNL1       -0.0692
      8 C          25.0167    1.3660    0.0000 C.3     1  UNL1       -0.0590
      9 C          24.0167    1.3660    0.0000 C.3     1  UNL1       -0.0590
     10 C          24.5167   -1.5000    0.0000 C.2     1  UNL1       -0.0844
     11 C          22.7846    0.5000    0.0000 C.2     1  UNL1       -0.0762
     12 C          22.7846   -1.5000    0.0000 C.3     1  UNL1       -0.0432
     13 C          21.9186    0.0000    0.0000 C.2     1  UNL1       -0.0622
     14 C          21.0526    0.5000    0.0000 C.2     1  UNL1       -0.0507
     15 C           6.3301    0.0000    0.0000 C.3     1  UNL1        0.0274
     16 C           5.4641   -0.5000    0.0000 C.3     1  UNL1       -0.0405
     17 C          21.0526    1.5000    0.0000 C.3     1  UNL1       -0.0397
     18 C          20.1865    0.0000    0.0000 C.2     1  UNL1       -0.0588
     19 C           4.5981    0.0000    0.0000 C.3     1  UNL1       -0.0455
     20 C           5.8301    0.8660    0.0000 C.3     1  UNL1       -0.0528
     21 C           6.8301   -0.8660    0.0000 C.3     1  UNL1       -0.0528
     22 C           7.1962    0.5000    0.0000 C.2     1  UNL1        0.1617
     23 C           3.7320   -0.5000    0.0000 C.3     1  UNL1        0.0056
     24 C          19.3205    0.5000    0.0000 C.2     1  UNL1       -0.0613
     25 C           8.0622    0.0000    0.0000 C.2     1  UNL1       -0.0184
     26 C           2.8660    0.0000    0.0000 C.2     1  UNL1        0.1303
     27 C          18.4545    0.0000    0.0000 C.2     1  UNL1       -0.0588
     28 C           8.9282    0.5000    0.0000 C.2     1  UNL1       -0.0555
     29 C           2.0000   -0.5000    0.0000 C.3     1  UNL1       -0.0061
     30 C          17.5885    0.5000    0.0000 C.2     1  UNL1       -0.0504
     31 C           9.7942    0.0000    0.0000 C.2     1  UNL1       -0.0503
     32 C           9.7942   -1.0000    0.0000 C.3     1  UNL1       -0.0397
     33 C          17.5885    1.5000    0.0000 C.3     1  UNL1       -0.0397
     34 C          10.6603    0.5000    0.0000 C.2     1  UNL1       -0.0588
     35 C          16.7224    0.0000    0.0000 C.2     1  UNL1       -0.0588
     36 C          11.5263    0.0000    0.0000 C.2     1  UNL1       -0.0613
     37 C          15.8564    0.5000    0.0000 C.2     1  UNL1       -0.0615
     38 C          12.3923    0.5000    0.0000 C.2     1  UNL1       -0.0588
     39 C          14.9904    0.0000    0.0000 C.2     1  UNL1       -0.0615
     40 C          13.2583    0.0000    0.0000 C.2     1  UNL1       -0.0504
     41 C          14.1244    0.5000    0.0000 C.2     1  UNL1       -0.0588
     42 C          13.2583   -1.0000    0.0000 C.3     1  UNL1       -0.0397
     43 H          23.6506    0.6200    0.0000 H       1  UNL1        0.0393
     44 H          25.9933   -0.1077    0.0000 H       1  UNL1        0.0274
     45 H          25.5947    0.5826    0.0000 H       1  UNL1        0.0274
     46 H          25.5947   -1.5826    0.0000 H       1  UNL1        0.0308
     47 H          25.9933   -0.8923    0.0000 H       1  UNL1        0.0308
     48 H          25.5536    1.0560    0.0000 H       1  UNL1        0.0235
     49 H          25.3267    1.9030    0.0000 H       1  UNL1        0.0235
     50 H          24.4797    1.6760    0.0000 H       1  UNL1        0.0235
     51 H          24.5536    1.6760    0.0000 H       1  UNL1        0.0235
     52 H          23.7067    1.9030    0.0000 H       1  UNL1        0.0235
     53 H          23.4797    1.0560    0.0000 H       1  UNL1        0.0235
     54 H          24.5167   -2.1200    0.0000 H       1  UNL1        0.0572
     55 H          22.7846    1.1200    0.0000 H       1  UNL1        0.0578
     56 H          22.4746   -0.9631    0.0000 H       1  UNL1        0.0275
     57 H          22.2477   -1.8100    0.0000 H       1  UNL1        0.0275
     58 H          23.0946   -2.0369    0.0000 H       1  UNL1        0.0275
     59 H          21.9186   -0.6200    0.0000 H       1  UNL1        0.0617
     60 H           5.0656   -0.9749    0.0000 H       1  UNL1        0.0275
     61 H           5.8626   -0.9749    0.0000 H       1  UNL1        0.0275
     62 H          21.6726    1.5000    0.0000 H       1  UNL1        0.0278
     63 H          21.0526    2.1200    0.0000 H       1  UNL1        0.0278
     64 H          20.4326    1.5000    0.0000 H       1  UNL1        0.0278
     65 H          20.1865   -0.6200    0.0000 H       1  UNL1        0.0620
     66 H           4.9966    0.4749    0.0000 H       1  UNL1        0.0270
     67 H           4.1996    0.4749    0.0000 H       1  UNL1        0.0270
     68 H           6.2932   -1.1760    0.0000 H       1  UNL1        0.0239
     69 H           7.1401   -1.4030    0.0000 H       1  UNL1        0.0239
     70 H           7.3671   -0.5560    0.0000 H       1  UNL1        0.0239
     71 H           6.3671    1.1760    0.0000 H       1  UNL1        0.0239
     72 H           5.5201    1.4030    0.0000 H       1  UNL1        0.0239
     73 H           5.2932    0.5560    0.0000 H       1  UNL1        0.0239
     74 H           3.3335   -0.9749    0.0000 H       1  UNL1        0.0341
     75 H           4.1306   -0.9749    0.0000 H       1  UNL1        0.0341
     76 H          19.3205    1.1200    0.0000 H       1  UNL1        0.0618
     77 H           8.0622   -0.6200    0.0000 H       1  UNL1        0.0653
     78 H          18.4545   -0.6200    0.0000 H       1  UNL1        0.0620
     79 H           8.9282    1.1200    0.0000 H       1  UNL1        0.0621
     80 H           1.6900    0.0369    0.0000 H       1  UNL1        0.0306
     81 H           1.4631   -0.8100    0.0000 H       1  UNL1        0.0306
     82 H           2.3100   -1.0369    0.0000 H       1  UNL1        0.0306
     83 H           9.1742   -1.0000    0.0000 H       1  UNL1        0.0278
     84 H           9.7942   -1.6200    0.0000 H       1  UNL1        0.0278
     85 H          10.4142   -1.0000    0.0000 H       1  UNL1        0.0278
     86 H          10.6603    1.1200    0.0000 H       1  UNL1        0.0620
     87 H          18.2085    1.5000    0.0000 H       1  UNL1        0.0278
     88 H          17.5885    2.1200    0.0000 H       1  UNL1        0.0278
     89 H          16.9685    1.5000    0.0000 H       1  UNL1        0.0278
     90 H          16.7224   -0.6200    0.0000 H       1  UNL1        0.0620
     91 H          11.5263   -0.6200    0.0000 H       1  UNL1        0.0618
     92 H          15.8564    1.1200    0.0000 H       1  UNL1        0.0618
     93 H          12.3923    1.1200    0.0000 H       1  UNL1        0.0620
     94 H          14.9904   -0.6200    0.0000 H       1  UNL1        0.0618
     95 H          14.1244    1.1200    0.0000 H       1  UNL1        0.0620
     96 H          12.6383   -1.0000    0.0000 H       1  UNL1        0.0278
     97 H          13.2583   -1.6200    0.0000 H       1  UNL1        0.0278
     98 H          13.8783   -1.0000    0.0000 H       1  UNL1        0.0278
@<TRIPOS>BOND
     1     1    22    2
     2     2    26    2
     3     3     4    1
     4     3     5    1
     5     3     8    1
     6     3     9    1
     7     4     7    1
     8     4    11    1
     9     4    43    1
    10     5     6    1
    11     5    44    1
    12     5    45    1
    13     6    10    1
    14     6    46    1
    15     6    47    1
    16     7    10    2
    17     7    12    1
    18     8    48    1
    19     8    49    1
    20     8    50    1
    21     9    51    1
    22     9    52    1
    23     9    53    1
    24    10    54    1
    25    11    13    2
    26    11    55    1
    27    12    56    1
    28    12    57    1
    29    12    58    1
    30    13    14    1
    31    13    59    1
    32    14    17    1
    33    14    18    2
    34    15    16    1
    35    15    20    1
    36    15    21    1
    37    15    22    1
    38    16    19    1
    39    16    60    1
    40    16    61    1
    41    17    62    1
    42    17    63    1
    43    17    64    1
    44    18    24    1
    45    18    65    1
    46    19    23    1
    47    19    66    1
    48    19    67    1
    49    20    71    1
    50    20    72    1
    51    20    73    1
    52    21    68    1
    53    21    69    1
    54    21    70    1
    55    22    25    1
    56    23    26    1
    57    23    74    1
    58    23    75    1
    59    24    27    2
    60    24    76    1
    61    25    28    2
    62    25    77    1
    63    26    29    1
    64    27    30    1
    65    27    78    1
    66    28    31    1
    67    28    79    1
    68    29    80    1
    69    29    81    1
    70    29    82    1
    71    30    33    1
    72    30    35    2
    73    31    32    1
    74    31    34    2
    75    32    83    1
    76    32    84    1
    77    32    85    1
    78    33    87    1
    79    33    88    1
    80    33    89    1
    81    34    36    1
    82    34    86    1
    83    35    37    1
    84    35    90    1
    85    36    38    2
    86    36    91    1
    87    37    39    2
    88    37    92    1
    89    38    40    1
    90    38    93    1
    91    39    41    1
    92    39    94    1
    93    40    41    2
    94    40    42    1
    95    41    95    1
    96    42    96    1
    97    42    97    1
    98    42    98    1
