@<TRIPOS>MOLECULE
IMPHY001117
 93 99 0 0 0
SMALL
GASTEIGER

@<TRIPOS>ATOM
      1 O           8.7202    4.4925    0.0000 O.3     1  UNL1       -0.4910
      2 O           5.1804    4.4789    0.0000 O.3     1  UNL1       -0.4907
      3 O           6.9464    5.5167    0.0000 O.3     1  UNL1       -0.4885
      4 O           2.5381    2.9716    0.0000 O.3     1  UNL1       -0.4914
      5 O           2.5381    0.9233    0.0000 O.3     1  UNL1       -0.5029
      6 O           2.5879   -0.1072    0.0000 O.3     1  UNL1       -0.5062
      7 O           9.6246   -5.0203    0.0000 O.3     1  UNL1       -0.4914
      8 O           9.5784   -3.0208    0.0000 O.3     1  UNL1       -0.5033
      9 N           7.7925    0.9505    0.0000 N.3     1  UNL1       -0.2978
     10 N           5.1925   -3.6016    0.0000 N.3     1  UNL1       -0.2978
     11 C           6.9343    1.4474    0.0000 C.3     1  UNL1        0.0404
     12 C           6.9343    2.4474    0.0000 C.ar    1  UNL1       -0.0119
     13 C           6.0682    0.9474    0.0000 C.3     1  UNL1       -0.0066
     14 C           7.8443    2.9543    0.0000 C.ar    1  UNL1        0.0046
     15 C           6.0682    2.9474    0.0000 C.ar    1  UNL1        0.0330
     16 C           5.2022    1.4474    0.0000 C.ar    1  UNL1       -0.0262
     17 C           8.6580    1.4347    0.0000 C.3     1  UNL1        0.0033
     18 C           8.6836    2.4260    0.0000 C.3     1  UNL1       -0.0109
     19 C           5.2022    2.4474    0.0000 C.ar    1  UNL1       -0.0064
     20 C           4.3083    0.9128    0.0000 C.ar    1  UNL1        0.0345
     21 C           7.8523    3.9959    0.0000 C.ar    1  UNL1        0.1687
     22 C           6.0522    3.9889    0.0000 C.ar    1  UNL1        0.1732
     23 C           7.7851   -0.0495    0.0000 C.3     1  UNL1       -0.0122
     24 C           6.9502    4.5167    0.0000 C.ar    1  UNL1        0.2044
     25 C           4.3083    2.9821    0.0000 C.ar    1  UNL1       -0.0082
     26 C           6.0865   -3.0669    0.0000 C.3     1  UNL1        0.0397
     27 C           4.3198   -0.0872    0.0000 C.ar    1  UNL1        0.0277
     28 C           3.4022    1.4266    0.0000 C.ar    1  UNL1        0.1667
     29 C           3.4022    2.4682    0.0000 C.ar    1  UNL1        0.1625
     30 C           6.0749   -2.0670    0.0000 C.3     1  UNL1       -0.0079
     31 C           6.9925   -3.5808    0.0000 C.ar    1  UNL1       -0.0231
     32 C           5.2166   -4.6429    0.0000 C.3     1  UNL1        0.0032
     33 C           5.2032   -1.5770    0.0000 C.ar    1  UNL1       -0.0448
     34 C           6.1343   -5.1357    0.0000 C.3     1  UNL1       -0.0144
     35 C           5.1916   -0.5771    0.0000 C.ar    1  UNL1       -0.0472
     36 C           7.0157   -4.5805    0.0000 C.ar    1  UNL1       -0.0378
     37 C           3.4597   -0.5971    0.0000 C.ar    1  UNL1        0.1247
     38 C           4.3430   -2.0870    0.0000 C.ar    1  UNL1       -0.0550
     39 C           4.3170   -3.1184    0.0000 C.3     1  UNL1       -0.0122
     40 C           7.8468   -3.0609    0.0000 C.ar    1  UNL1       -0.0116
     41 C           3.4712   -1.5971    0.0000 C.ar    1  UNL1       -0.0193
     42 C           7.8930   -5.0604    0.0000 C.ar    1  UNL1       -0.0128
     43 C           8.7241    5.4925    0.0000 C.3     1  UNL1        0.0790
     44 C           5.1689    5.4788    0.0000 C.3     1  UNL1        0.0790
     45 C           8.7241   -3.5407    0.0000 C.ar    1  UNL1        0.1588
     46 C           8.7472   -4.5404    0.0000 C.ar    1  UNL1        0.1615
     47 C           7.8105    6.0200    0.0000 C.3     1  UNL1        0.0791
     48 C           2.5420    3.9716    0.0000 C.3     1  UNL1        0.0790
     49 C           9.6477   -6.0200    0.0000 C.3     1  UNL1        0.0790
     50 H           6.9337    0.5974    0.0000 H       1  UNL1        0.0516
     51 H           5.6697    0.4725    0.0000 H       1  UNL1        0.0332
     52 H           6.4668    0.4725    0.0000 H       1  UNL1        0.0332
     53 H           8.8597    0.8484    0.0000 H       1  UNL1        0.0430
     54 H           9.2708    1.5290    0.0000 H       1  UNL1        0.0430
     55 H           9.2907    2.3002    0.0000 H       1  UNL1        0.0327
     56 H           8.9154    3.0011    0.0000 H       1  UNL1        0.0327
     57 H           7.1651   -0.0449    0.0000 H       1  UNL1        0.0391
     58 H           7.7805   -0.6694    0.0000 H       1  UNL1        0.0391
     59 H           8.4051   -0.0541    0.0000 H       1  UNL1        0.0391
     60 H           4.3154    3.6021    0.0000 H       1  UNL1        0.0661
     61 H           5.5454   -2.7642    0.0000 H       1  UNL1        0.0515
     62 H           6.6867   -2.1676    0.0000 H       1  UNL1        0.0332
     63 H           6.2802   -1.4820    0.0000 H       1  UNL1        0.0332
     64 H           4.6035   -4.5510    0.0000 H       1  UNL1        0.0430
     65 H           5.0211   -5.2313    0.0000 H       1  UNL1        0.0430
     66 H           5.7519   -5.6237    0.0000 H       1  UNL1        0.0326
     67 H           6.5497   -5.5960    0.0000 H       1  UNL1        0.0326
     68 H           5.7249   -0.2609    0.0000 H       1  UNL1        0.0627
     69 H           4.3501   -2.7070    0.0000 H       1  UNL1        0.0621
     70 H           4.6166   -2.5756    0.0000 H       1  UNL1        0.0391
     71 H           3.7742   -2.8188    0.0000 H       1  UNL1        0.0391
     72 H           4.0174   -3.6612    0.0000 H       1  UNL1        0.0391
     73 H           7.8324   -2.4410    0.0000 H       1  UNL1        0.0658
     74 H           2.9379   -1.9133    0.0000 H       1  UNL1        0.0654
     75 H           7.9074   -5.6802    0.0000 H       1  UNL1        0.0658
     76 H           2.0000    1.2312    0.0000 H       1  UNL1        0.2923
     77 H           9.3441    5.4901    0.0000 H       1  UNL1        0.0660
     78 H           8.7265    6.1125    0.0000 H       1  UNL1        0.0660
     79 H           8.1041    5.4949    0.0000 H       1  UNL1        0.0660
     80 H           5.7888    5.4860    0.0000 H       1  UNL1        0.0660
     81 H           5.1617    6.0988    0.0000 H       1  UNL1        0.0660
     82 H           4.5489    5.4717    0.0000 H       1  UNL1        0.0660
     83 H           8.1225    5.4843    0.0000 H       1  UNL1        0.0660
     84 H           8.3462    6.3321    0.0000 H       1  UNL1        0.0660
     85 H           7.4984    6.5558    0.0000 H       1  UNL1        0.0660
     86 H           2.0546   -0.4234    0.0000 H       1  UNL1        0.2922
     87 H           3.1620    3.9692    0.0000 H       1  UNL1        0.0660
     88 H           2.5444    4.5916    0.0000 H       1  UNL1        0.0660
     89 H           1.9220    3.9740    0.0000 H       1  UNL1        0.0660
     90 H          10.1223   -3.3183    0.0000 H       1  UNL1        0.2923
     91 H           9.0279   -6.0344    0.0000 H       1  UNL1        0.0660
     92 H           9.6621   -6.6399    0.0000 H       1  UNL1        0.0660
     93 H          10.2676   -6.0057    0.0000 H       1  UNL1        0.0660
@<TRIPOS>BOND
     1     1    21    1
     2     1    43    1
     3     2    22    1
     4     2    44    1
     5     3    24    1
     6     3    47    1
     7     4    29    1
     8     4    48    1
     9     5    28    1
    10     5    76    1
    11     6    37    1
    12     6    86    1
    13     7    46    1
    14     7    49    1
    15     8    45    1
    16     8    90    1
    17     9    11    1
    18     9    17    1
    19     9    23    1
    20    10    26    1
    21    10    32    1
    22    10    39    1
    23    11    12    1
    24    11    13    1
    25    11    50    1
    26    12    14   ar
    27    12    15   ar
    28    13    16    1
    29    13    51    1
    30    13    52    1
    31    14    18    1
    32    14    21   ar
    33    15    19    1
    34    15    22   ar
    35    16    19   ar
    36    16    20   ar
    37    17    18    1
    38    17    53    1
    39    17    54    1
    40    18    55    1
    41    18    56    1
    42    19    25   ar
    43    20    27    1
    44    20    28   ar
    45    21    24   ar
    46    22    24   ar
    47    23    57    1
    48    23    58    1
    49    23    59    1
    50    25    29   ar
    51    25    60    1
    52    26    30    1
    53    26    31    1
    54    26    61    1
    55    27    35   ar
    56    27    37   ar
    57    28    29   ar
    58    30    33    1
    59    30    62    1
    60    30    63    1
    61    31    36   ar
    62    31    40   ar
    63    32    34    1
    64    32    64    1
    65    32    65    1
    66    33    35   ar
    67    33    38   ar
    68    34    36    1
    69    34    66    1
    70    34    67    1
    71    35    68    1
    72    36    42   ar
    73    37    41   ar
    74    38    41   ar
    75    38    69    1
    76    39    70    1
    77    39    71    1
    78    39    72    1
    79    40    45   ar
    80    40    73    1
    81    41    74    1
    82    42    46   ar
    83    42    75    1
    84    43    77    1
    85    43    78    1
    86    43    79    1
    87    44    80    1
    88    44    81    1
    89    44    82    1
    90    45    46   ar
    91    47    83    1
    92    47    84    1
    93    47    85    1
    94    48    87    1
    95    48    88    1
    96    48    89    1
    97    49    91    1
    98    49    92    1
    99    49    93    1
