@<TRIPOS>MOLECULE
IMPHY014089
 108 107 0 0 0
SMALL
GASTEIGER

@<TRIPOS>ATOM
      1 O           2.8660   -9.3100    0.0000 O.2     1  UNL1       -0.2977
      2 C          11.5263    0.6900    0.0000 C.3     1  UNL1       -0.0531
      3 C          11.5263   -0.3100    0.0000 C.3     1  UNL1       -0.0531
      4 C          12.3923    1.1900    0.0000 C.3     1  UNL1       -0.0531
      5 C          10.6603   -0.8100    0.0000 C.3     1  UNL1       -0.0531
      6 C          12.3923    2.1900    0.0000 C.3     1  UNL1       -0.0531
      7 C          10.6603   -1.8100    0.0000 C.3     1  UNL1       -0.0531
      8 C          13.2583    2.6900    0.0000 C.3     1  UNL1       -0.0531
      9 C           9.7942   -2.3100    0.0000 C.3     1  UNL1       -0.0531
     10 C          13.2583    3.6900    0.0000 C.3     1  UNL1       -0.0531
     11 C           9.7942   -3.3100    0.0000 C.3     1  UNL1       -0.0531
     12 C          14.1244    4.1900    0.0000 C.3     1  UNL1       -0.0531
     13 C           8.9282   -3.8100    0.0000 C.3     1  UNL1       -0.0531
     14 C          14.1244    5.1900    0.0000 C.3     1  UNL1       -0.0530
     15 C           8.9282   -4.8100    0.0000 C.3     1  UNL1       -0.0530
     16 C          14.9904    5.6900    0.0000 C.3     1  UNL1       -0.0528
     17 C           8.0622   -5.3100    0.0000 C.3     1  UNL1       -0.0528
     18 C          14.9904    6.6900    0.0000 C.3     1  UNL1       -0.0496
     19 C           8.0622   -6.3100    0.0000 C.3     1  UNL1       -0.0496
     20 C          15.8564    7.1900    0.0000 C.3     1  UNL1       -0.0348
     21 C           7.1962   -6.8100    0.0000 C.3     1  UNL1       -0.0348
     22 C          19.3205    8.1900    0.0000 C.3     1  UNL1       -0.0528
     23 C          20.1865    8.6900    0.0000 C.3     1  UNL1       -0.0530
     24 C          18.4545    8.6900    0.0000 C.3     1  UNL1       -0.0496
     25 C          21.0526    8.1900    0.0000 C.3     1  UNL1       -0.0531
     26 C          17.5885    8.1900    0.0000 C.3     1  UNL1       -0.0348
     27 C          15.8564    8.1900    0.0000 C.2     1  UNL1       -0.0879
     28 C          21.9186    8.6900    0.0000 C.3     1  UNL1       -0.0533
     29 C          16.7224    8.6900    0.0000 C.2     1  UNL1       -0.0879
     30 C           7.1962   -7.8100    0.0000 C.2     1  UNL1       -0.0879
     31 C          22.7846    8.1900    0.0000 C.3     1  UNL1       -0.0559
     32 C           6.3301   -8.3100    0.0000 C.2     1  UNL1       -0.0879
     33 C           5.4641   -7.8100    0.0000 C.3     1  UNL1       -0.0344
     34 C          23.6506    8.6900    0.0000 C.3     1  UNL1       -0.0653
     35 C           4.5981   -8.3100    0.0000 C.3     1  UNL1       -0.0429
     36 C           3.7320   -7.8100    0.0000 C.3     1  UNL1        0.0058
     37 C           2.8660   -8.3100    0.0000 C.2     1  UNL1        0.1303
     38 C           2.0000   -7.8100    0.0000 C.3     1  UNL1       -0.0061
     39 H          11.3142    1.2726    0.0000 H       1  UNL1        0.0265
     40 H          10.9157    0.5823    0.0000 H       1  UNL1        0.0265
     41 H          11.7383   -0.8926    0.0000 H       1  UNL1        0.0265
     42 H          12.1369   -0.2023    0.0000 H       1  UNL1        0.0265
     43 H          12.6044    0.6074    0.0000 H       1  UNL1        0.0265
     44 H          13.0029    1.2977    0.0000 H       1  UNL1        0.0265
     45 H          10.4482   -0.2274    0.0000 H       1  UNL1        0.0265
     46 H          10.0497   -0.9177    0.0000 H       1  UNL1        0.0265
     47 H          12.1803    2.7726    0.0000 H       1  UNL1        0.0265
     48 H          11.7817    2.0823    0.0000 H       1  UNL1        0.0265
     49 H          10.8723   -2.3926    0.0000 H       1  UNL1        0.0265
     50 H          11.2708   -1.7023    0.0000 H       1  UNL1        0.0265
     51 H          13.4704    2.1074    0.0000 H       1  UNL1        0.0265
     52 H          13.8689    2.7977    0.0000 H       1  UNL1        0.0265
     53 H           9.5822   -1.7274    0.0000 H       1  UNL1        0.0265
     54 H           9.1836   -2.4177    0.0000 H       1  UNL1        0.0265
     55 H          13.0463    4.2726    0.0000 H       1  UNL1        0.0265
     56 H          12.6477    3.5823    0.0000 H       1  UNL1        0.0265
     57 H          10.0063   -3.8926    0.0000 H       1  UNL1        0.0265
     58 H          10.4048   -3.2023    0.0000 H       1  UNL1        0.0265
     59 H          14.3364    3.6074    0.0000 H       1  UNL1        0.0265
     60 H          14.7349    4.2977    0.0000 H       1  UNL1        0.0265
     61 H           8.7162   -3.2274    0.0000 H       1  UNL1        0.0265
     62 H           8.3176   -3.9177    0.0000 H       1  UNL1        0.0265
     63 H          13.9123    5.7726    0.0000 H       1  UNL1        0.0265
     64 H          13.5138    5.0823    0.0000 H       1  UNL1        0.0265
     65 H           9.1403   -5.3926    0.0000 H       1  UNL1        0.0265
     66 H           9.5388   -4.7023    0.0000 H       1  UNL1        0.0265
     67 H          15.2024    5.1074    0.0000 H       1  UNL1        0.0265
     68 H          15.6010    5.7977    0.0000 H       1  UNL1        0.0265
     69 H           7.8501   -4.7274    0.0000 H       1  UNL1        0.0265
     70 H           7.4516   -5.4177    0.0000 H       1  UNL1        0.0265
     71 H          14.7783    7.2726    0.0000 H       1  UNL1        0.0268
     72 H          14.3798    6.5823    0.0000 H       1  UNL1        0.0268
     73 H           8.2742   -6.8926    0.0000 H       1  UNL1        0.0268
     74 H           8.6728   -6.2023    0.0000 H       1  UNL1        0.0268
     75 H          16.0685    6.6074    0.0000 H       1  UNL1        0.0307
     76 H          16.4670    7.2977    0.0000 H       1  UNL1        0.0307
     77 H           6.9841   -6.2274    0.0000 H       1  UNL1        0.0307
     78 H           6.5856   -6.9177    0.0000 H       1  UNL1        0.0307
     79 H          18.9220    7.7150    0.0000 H       1  UNL1        0.0265
     80 H          19.7190    7.7150    0.0000 H       1  UNL1        0.0265
     81 H          20.5851    9.1649    0.0000 H       1  UNL1        0.0265
     82 H          19.7880    9.1649    0.0000 H       1  UNL1        0.0265
     83 H          18.8530    9.1649    0.0000 H       1  UNL1        0.0268
     84 H          18.0560    9.1649    0.0000 H       1  UNL1        0.0268
     85 H          20.6540    7.7150    0.0000 H       1  UNL1        0.0265
     86 H          21.4511    7.7150    0.0000 H       1  UNL1        0.0265
     87 H          17.1899    7.7150    0.0000 H       1  UNL1        0.0307
     88 H          17.9870    7.7150    0.0000 H       1  UNL1        0.0307
     89 H          15.3195    8.5000    0.0000 H       1  UNL1        0.0569
     90 H          22.3171    9.1649    0.0000 H       1  UNL1        0.0265
     91 H          21.5201    9.1649    0.0000 H       1  UNL1        0.0265
     92 H          16.7224    9.3100    0.0000 H       1  UNL1        0.0569
     93 H           7.7331   -8.1200    0.0000 H       1  UNL1        0.0569
     94 H          22.3861    7.7150    0.0000 H       1  UNL1        0.0263
     95 H          23.1831    7.7150    0.0000 H       1  UNL1        0.0263
     96 H           6.3301   -8.9300    0.0000 H       1  UNL1        0.0569
     97 H           5.8626   -7.3350    0.0000 H       1  UNL1        0.0307
     98 H           5.0656   -7.3350    0.0000 H       1  UNL1        0.0307
     99 H          23.9606    8.1531    0.0000 H       1  UNL1        0.0230
    100 H          24.1876    9.0000    0.0000 H       1  UNL1        0.0230
    101 H          23.3406    9.2269    0.0000 H       1  UNL1        0.0230
    102 H           4.1996   -8.7850    0.0000 H       1  UNL1        0.0272
    103 H           4.9966   -8.7850    0.0000 H       1  UNL1        0.0272
    104 H           4.1306   -7.3350    0.0000 H       1  UNL1        0.0342
    105 H           3.3335   -7.3350    0.0000 H       1  UNL1        0.0342
    106 H           2.3100   -7.2731    0.0000 H       1  UNL1        0.0306
    107 H           1.4631   -7.5000    0.0000 H       1  UNL1        0.0306
    108 H           1.6900   -8.3469    0.0000 H       1  UNL1        0.0306
@<TRIPOS>BOND
     1     1    37    2
     2     2     3    1
     3     2     4    1
     4     2    39    1
     5     2    40    1
     6     3     5    1
     7     3    41    1
     8     3    42    1
     9     4     6    1
    10     4    43    1
    11     4    44    1
    12     5     7    1
    13     5    45    1
    14     5    46    1
    15     6     8    1
    16     6    47    1
    17     6    48    1
    18     7     9    1
    19     7    49    1
    20     7    50    1
    21     8    10    1
    22     8    51    1
    23     8    52    1
    24     9    11    1
    25     9    53    1
    26     9    54    1
    27    10    12    1
    28    10    55    1
    29    10    56    1
    30    11    13    1
    31    11    57    1
    32    11    58    1
    33    12    14    1
    34    12    59    1
    35    12    60    1
    36    13    15    1
    37    13    61    1
    38    13    62    1
    39    14    16    1
    40    14    63    1
    41    14    64    1
    42    15    17    1
    43    15    65    1
    44    15    66    1
    45    16    18    1
    46    16    67    1
    47    16    68    1
    48    17    19    1
    49    17    69    1
    50    17    70    1
    51    18    20    1
    52    18    71    1
    53    18    72    1
    54    19    21    1
    55    19    73    1
    56    19    74    1
    57    20    27    1
    58    20    75    1
    59    20    76    1
    60    21    30    1
    61    21    77    1
    62    21    78    1
    63    22    23    1
    64    22    24    1
    65    22    79    1
    66    22    80    1
    67    23    25    1
    68    23    81    1
    69    23    82    1
    70    24    26    1
    71    24    83    1
    72    24    84    1
    73    25    28    1
    74    25    85    1
    75    25    86    1
    76    26    29    1
    77    26    87    1
    78    26    88    1
    79    27    29    2
    80    27    89    1
    81    28    31    1
    82    28    90    1
    83    28    91    1
    84    29    92    1
    85    30    32    2
    86    30    93    1
    87    31    34    1
    88    31    94    1
    89    31    95    1
    90    32    33    1
    91    32    96    1
    92    33    35    1
    93    33    97    1
    94    33    98    1
    95    34    99    1
    96    34   100    1
    97    34   101    1
    98    35    36    1
    99    35   102    1
   100    35   103    1
   101    36    37    1
   102    36   104    1
   103    36   105    1
   104    37    38    1
   105    38   106    1
   106    38   107    1
   107    38   108    1
