@<TRIPOS>MOLECULE
IMPHY000564
 52 53 0 0 0
SMALL
GASTEIGER

@<TRIPOS>ATOM
      1 O           5.1350   -0.6979    0.0000 O.3     1  UNL1       -0.3404
      2 O           6.8671   -0.6979    0.0000 O.3     1  UNL1       -0.3061
      3 O           5.1350   -3.6979    0.0000 O.3     1  UNL1       -0.3864
      4 O           3.4030   -2.6979    0.0000 O.3     1  UNL1       -0.3865
      5 O           6.8671   -2.6979    0.0000 O.3     1  UNL1       -0.3841
      6 O           6.0010    0.8021    0.0000 O.2     1  UNL1       -0.4666
      7 O           2.5369   -1.1979    0.0000 O.3     1  UNL1       -0.3924
      8 O           5.2395    2.8945    0.0000 O.3     1  UNL1       -0.4646
      9 O          10.2267    2.8945    0.0000 O.3     1  UNL1       -0.4806
     10 O           6.5663    4.0079    0.0000 O.2     1  UNL1       -0.2452
     11 O           8.8999    4.0079    0.0000 O.2     1  UNL1       -0.2510
     12 C           5.1350   -2.6979    0.0000 C.3     1  UNL1        0.1141
     13 C           4.2690   -2.1979    0.0000 C.3     1  UNL1        0.1119
     14 C           6.0010   -2.1979    0.0000 C.3     1  UNL1        0.1343
     15 C           4.2690   -1.1979    0.0000 C.3     1  UNL1        0.1130
     16 C           6.0010   -1.1979    0.0000 C.3     1  UNL1        0.1921
     17 C           6.8671    0.3021    0.0000 C.3     1  UNL1        0.2266
     18 C           3.4030   -0.6979    0.0000 C.3     1  UNL1        0.0730
     19 C           7.7331    1.8021    0.0000 C.3     1  UNL1        0.0307
     20 C           7.7331    0.8021    0.0000 C.2     1  UNL1        0.0019
     21 C           6.8671    2.3021    0.0000 C.2     1  UNL1        0.0785
     22 C           8.5991    2.3021    0.0000 C.3     1  UNL1        0.0558
     23 C           6.0010    1.8021    0.0000 C.2     1  UNL1        0.0988
     24 C           8.5991    0.3021    0.0000 C.2     1  UNL1       -0.0814
     25 C           6.2243    3.0682    0.0000 C.2     1  UNL1        0.3384
     26 C           9.2419    3.0682    0.0000 C.2     1  UNL1        0.3056
     27 C           9.4651    0.8021    0.0000 C.3     1  UNL1       -0.0464
     28 C           4.5967    3.6606    0.0000 C.3     1  UNL1        0.0820
     29 H           5.6720   -3.0079    0.0000 H       1  UNL1        0.0648
     30 H           4.2690   -2.8179    0.0000 H       1  UNL1        0.0647
     31 H           6.5380   -1.8879    0.0000 H       1  UNL1        0.0671
     32 H           4.2690   -0.5779    0.0000 H       1  UNL1        0.0647
     33 H           6.0010   -0.5779    0.0000 H       1  UNL1        0.0939
     34 H           7.4040   -0.0079    0.0000 H       1  UNL1        0.1109
     35 H           3.8015   -0.2229    0.0000 H       1  UNL1        0.0584
     36 H           3.0044   -0.2229    0.0000 H       1  UNL1        0.0584
     37 H           8.2700    1.4921    0.0000 H       1  UNL1        0.0404
     38 H           4.5981   -4.0079    0.0000 H       1  UNL1        0.2100
     39 H           3.4030   -3.3179    0.0000 H       1  UNL1        0.2100
     40 H           6.8671   -3.3179    0.0000 H       1  UNL1        0.2101
     41 H           8.6711    1.6863    0.0000 H       1  UNL1        0.0387
     42 H           8.2006    2.7771    0.0000 H       1  UNL1        0.0387
     43 H           5.4641    2.1121    0.0000 H       1  UNL1        0.1030
     44 H           8.5991   -0.3179    0.0000 H       1  UNL1        0.0571
     45 H           2.0000   -0.8879    0.0000 H       1  UNL1        0.2095
     46 H           9.7751    0.2652    0.0000 H       1  UNL1        0.0272
     47 H          10.0021    1.1121    0.0000 H       1  UNL1        0.0272
     48 H           9.1551    1.3391    0.0000 H       1  UNL1        0.0272
     49 H          10.6252    3.3695    0.0000 H       1  UNL1        0.2951
     50 H           5.0716    4.0591    0.0000 H       1  UNL1        0.0661
     51 H           4.1982    4.1355    0.0000 H       1  UNL1        0.0661
     52 H           4.1217    3.2620    0.0000 H       1  UNL1        0.0661
@<TRIPOS>BOND
     1     1    15    1
     2     1    16    1
     3    16     2    1
     4    17     2    1
     5    12     3    1
     6     3    38    1
     7    13     4    1
     8     4    39    1
     9    14     5    1
    10     5    40    1
    11     6    17    1
    12     6    23    1
    13     7    18    1
    14     7    45    1
    15     8    25    1
    16     8    28    1
    17     9    26    1
    18     9    49    1
    19    10    25    2
    20    11    26    2
    21    12    13    1
    22    12    14    1
    23    12    29    1
    24    13    15    1
    25    13    30    1
    26    14    16    1
    27    14    31    1
    28    15    18    1
    29    15    32    1
    30    16    33    1
    31    17    20    1
    32    17    34    1
    33    18    35    1
    34    18    36    1
    35    19    20    1
    36    19    21    1
    37    19    22    1
    38    19    37    1
    39    20    24    2
    40    21    23    2
    41    21    25    1
    42    22    26    1
    43    22    41    1
    44    22    42    1
    45    23    43    1
    46    24    27    1
    47    24    44    1
    48    27    46    1
    49    27    47    1
    50    27    48    1
    51    28    50    1
    52    28    51    1
    53    28    52    1
