@<TRIPOS>MOLECULE
IMPHY007347
 48 51 0 0 0
SMALL
GASTEIGER

@<TRIPOS>ATOM
      1 O           7.2965   -0.2923    0.0000 O.2     1  UNL1       -0.2920
      2 O           4.0045   -2.6841    0.0000 O.2     1  UNL1       -0.2917
      3 O           2.6049   -1.6673    0.0000 O.3     1  UNL1       -0.5065
      4 O           3.8624    2.2027    0.0000 O.3     1  UNL1       -0.5065
      5 C           5.5364   -0.4805    0.0000 C.3     1  UNL1        0.0637
      6 C           4.7273   -1.0683    0.0000 C.3     1  UNL1        0.0789
      7 C           5.2273    0.4706    0.0000 C.3     1  UNL1        0.0205
      8 C           3.9183   -0.4805    0.0000 C.ar    1  UNL1        0.0162
      9 C           4.2984   -0.9289    0.0000 C.3     1  UNL1       -0.0141
     10 C           4.2273    0.4706    0.0000 C.ar    1  UNL1        0.0095
     11 C           6.3454    0.1073    0.0000 C.3     1  UNL1       -0.0197
     12 C           4.7984    0.6100    0.0000 C.2     1  UNL1       -0.0765
     13 C           6.4944   -0.8894    0.0000 C.2     1  UNL1        0.1647
     14 C           4.8202   -2.1057    0.0000 C.2     1  UNL1        0.1680
     15 C           3.9894    0.0222    0.0000 C.2     1  UNL1       -0.0746
     16 C           2.9029   -0.7127    0.0000 C.ar    1  UNL1        0.1215
     17 C           3.5424    1.2553    0.0000 C.ar    1  UNL1        0.1211
     18 C           6.6112   -1.9245    0.0000 C.2     1  UNL1       -0.0153
     19 C           5.7685   -2.5367    0.0000 C.2     1  UNL1       -0.0150
     20 C           6.2408    1.1018    0.0000 C.2     1  UNL1       -0.0843
     21 C           3.0383    0.3312    0.0000 C.3     1  UNL1       -0.0437
     22 C           2.2000    0.0560    0.0000 C.ar    1  UNL1       -0.0164
     23 C           2.5219    1.0466    0.0000 C.ar    1  UNL1       -0.0164
     24 C           7.0499    1.6896    0.0000 C.2     1  UNL1       -0.0796
     25 C           6.9453    2.6841    0.0000 C.3     1  UNL1       -0.0440
     26 C           7.9634    1.2829    0.0000 C.3     1  UNL1       -0.0440
     27 H           5.4900    1.2790    0.0000 H       1  UNL1        0.0403
     28 H           3.6818   -0.9937    0.0000 H       1  UNL1        0.0323
     29 H           4.2336   -1.5455    0.0000 H       1  UNL1        0.0323
     30 H           6.6172   -0.4499    0.0000 H       1  UNL1        0.0318
     31 H           6.9414    0.2782    0.0000 H       1  UNL1        0.0318
     32 H           4.7014    1.2223    0.0000 H       1  UNL1        0.0578
     33 H           7.1786   -2.1745    0.0000 H       1  UNL1        0.0653
     34 H           5.8309   -3.1536    0.0000 H       1  UNL1        0.0654
     35 H           5.6744    1.3540    0.0000 H       1  UNL1        0.0572
     36 H           3.2299    0.9208    0.0000 H       1  UNL1        0.0274
     37 H           2.4486    0.5228    0.0000 H       1  UNL1        0.0274
     38 H           2.8467   -0.2585    0.0000 H       1  UNL1        0.0274
     39 H           1.5940   -0.0753    0.0000 H       1  UNL1        0.0655
     40 H           2.1088    1.5090    0.0000 H       1  UNL1        0.0655
     41 H           2.0000   -1.8032    0.0000 H       1  UNL1        0.2921
     42 H           3.4529    2.6682    0.0000 H       1  UNL1        0.2921
     43 H           7.5619    2.7489    0.0000 H       1  UNL1        0.0274
     44 H           6.8805    3.3007    0.0000 H       1  UNL1        0.0274
     45 H           6.3287    2.6193    0.0000 H       1  UNL1        0.0274
     46 H           7.7112    0.7165    0.0000 H       1  UNL1        0.0274
     47 H           8.5298    1.0307    0.0000 H       1  UNL1        0.0274
     48 H           8.2156    1.8493    0.0000 H       1  UNL1        0.0274
@<TRIPOS>BOND
     1     1    13    2
     2     2    14    2
     3     3    16    1
     4     3    41    1
     5     4    17    1
     6     4    42    1
     7     5     6    1
     8     5     7    1
     9     5    11    1
    10     5    13    1
    11     6     8    1
    12     6     9    1
    13     6    14    1
    14     7    10    1
    15     7    12    1
    16     7    27    1
    17     8    10   ar
    18     8    16   ar
    19     9    15    1
    20     9    28    1
    21     9    29    1
    22    10    17   ar
    23    11    20    1
    24    11    30    1
    25    11    31    1
    26    12    15    2
    27    12    32    1
    28    13    18    1
    29    14    19    1
    30    15    21    1
    31    16    22   ar
    32    17    23   ar
    33    18    19    2
    34    18    33    1
    35    19    34    1
    36    20    24    2
    37    20    35    1
    38    21    36    1
    39    21    37    1
    40    21    38    1
    41    22    23   ar
    42    22    39    1
    43    23    40    1
    44    24    25    1
    45    24    26    1
    46    25    43    1
    47    25    44    1
    48    25    45    1
    49    26    46    1
    50    26    47    1
    51    26    48    1
