@<TRIPOS>MOLECULE
IMPHY004715
 48 50 0 0 0
SMALL
GASTEIGER

@<TRIPOS>ATOM
      1 O           5.5301   -1.5000    0.0000 O.2     1  UNL1       -0.4618
      2 O           6.3961    2.0000    0.0000 O.3     1  UNL1       -0.4944
      3 O           9.8602   -0.0000    0.0000 O.3     1  UNL1       -0.5031
      4 O           9.8602    2.0000    0.0000 O.3     1  UNL1       -0.5032
      5 O           5.5301    1.5000    0.0000 O.2     1  UNL1       -0.2863
      6 O           3.7817    1.5346    0.0000 O.3     1  UNL1       -0.5058
      7 O           2.0000   -1.5241    0.0000 O.3     1  UNL1       -0.5065
      8 C           7.2622    0.5000    0.0000 C.ar    1  UNL1        0.0376
      9 C           8.1282   -0.0000    0.0000 C.ar    1  UNL1        0.0128
     10 C           6.3961    0.0000    0.0000 C.ar    1  UNL1        0.0683
     11 C           8.1282   -1.0000    0.0000 C.3     1  UNL1       -0.0050
     12 C           7.2622    1.5000    0.0000 C.ar    1  UNL1        0.1319
     13 C           8.9942    0.5000    0.0000 C.ar    1  UNL1        0.1626
     14 C           5.5301    0.5000    0.0000 C.ar    1  UNL1        0.2038
     15 C           4.6641    0.0000    0.0000 C.ar    1  UNL1        0.1060
     16 C           8.9942    1.5000    0.0000 C.ar    1  UNL1        0.1621
     17 C           8.1282    2.0000    0.0000 C.ar    1  UNL1        0.0258
     18 C           4.6641   -1.0000    0.0000 C.ar    1  UNL1        0.1454
     19 C           6.3961   -1.0000    0.0000 C.ar    1  UNL1        0.1040
     20 C           8.9942   -1.5000    0.0000 C.2     1  UNL1       -0.0808
     21 C           3.7702    0.5347    0.0000 C.ar    1  UNL1        0.1347
     22 C           8.9942   -2.5000    0.0000 C.2     1  UNL1       -0.0793
     23 C           3.7702   -1.5347    0.0000 C.ar    1  UNL1        0.0231
     24 C           2.8641    0.0208    0.0000 C.ar    1  UNL1        0.0223
     25 C           2.8641   -1.0208    0.0000 C.ar    1  UNL1        0.1239
     26 C           9.8602   -3.0000    0.0000 C.3     1  UNL1       -0.0440
     27 C           8.1282   -3.0000    0.0000 C.3     1  UNL1       -0.0440
     28 C           6.3961    3.0000    0.0000 C.3     1  UNL1        0.0788
     29 H           7.5176   -0.8923    0.0000 H       1  UNL1        0.0357
     30 H           7.9162   -1.5826    0.0000 H       1  UNL1        0.0357
     31 H           8.1282    2.6200    0.0000 H       1  UNL1        0.0692
     32 H           6.9331   -1.3100    0.0000 H       1  UNL1        0.1037
     33 H           9.5312   -1.1900    0.0000 H       1  UNL1        0.0575
     34 H           3.7773   -2.1546    0.0000 H       1  UNL1        0.0691
     35 H           2.3284    0.3329    0.0000 H       1  UNL1        0.0691
     36 H          10.3972    0.3100    0.0000 H       1  UNL1        0.2923
     37 H           9.5502   -3.5369    0.0000 H       1  UNL1        0.0274
     38 H           7.8182   -2.4631    0.0000 H       1  UNL1        0.0274
     39 H           7.5913   -3.3100    0.0000 H       1  UNL1        0.0274
     40 H           8.4382   -3.5369    0.0000 H       1  UNL1        0.0274
     41 H          10.3972   -3.3100    0.0000 H       1  UNL1        0.0274
     42 H          10.1703   -2.4631    0.0000 H       1  UNL1        0.0274
     43 H           9.8602    2.6200    0.0000 H       1  UNL1        0.2923
     44 H           7.0162    3.0000    0.0000 H       1  UNL1        0.0660
     45 H           6.3961    3.6200    0.0000 H       1  UNL1        0.0660
     46 H           5.7762    3.0000    0.0000 H       1  UNL1        0.0660
     47 H           3.2484    1.8508    0.0000 H       1  UNL1        0.2922
     48 H           2.0024   -2.1441    0.0000 H       1  UNL1        0.2921
@<TRIPOS>BOND
     1     1    18   ar
     2     1    19   ar
     3     2    12    1
     4     2    28    1
     5     3    13    1
     6     3    36    1
     7     4    16    1
     8     4    43    1
     9     5    14    2
    10     6    21    1
    11     6    47    1
    12     7    25    1
    13     7    48    1
    14     8     9   ar
    15     8    10    1
    16     8    12   ar
    17     9    11    1
    18     9    13   ar
    19    10    14   ar
    20    10    19   ar
    21    11    20    1
    22    11    29    1
    23    11    30    1
    24    12    17   ar
    25    13    16   ar
    26    14    15   ar
    27    15    18   ar
    28    15    21   ar
    29    16    17   ar
    30    17    31    1
    31    18    23   ar
    32    19    32    1
    33    20    22    2
    34    20    33    1
    35    21    24   ar
    36    22    26    1
    37    22    27    1
    38    23    25   ar
    39    23    34    1
    40    24    25   ar
    41    24    35    1
    42    26    37    1
    43    26    41    1
    44    26    42    1
    45    27    38    1
    46    27    39    1
    47    27    40    1
    48    28    44    1
    49    28    45    1
    50    28    46    1
