@<TRIPOS>MOLECULE
IMPHY001170
 59 61 0 0 0
SMALL
GASTEIGER

@<TRIPOS>ATOM
      1 O           2.5381    0.3290    0.0000 O.3     1  UNL1       -0.3891
      2 O           8.6644   -2.2052    0.0000 O.2     1  UNL1       -0.4542
      3 O           6.9160    0.8294    0.0000 O.3     1  UNL1       -0.5055
      4 O           5.1343   -2.2293    0.0000 O.3     1  UNL1       -0.5063
      5 O           8.6644    0.7948    0.0000 O.2     1  UNL1       -0.2863
      6 O          12.1945   -0.1810    0.0000 O.3     1  UNL1       -0.4912
      7 O          12.1945   -2.2293    0.0000 O.3     1  UNL1       -0.5032
      8 C           3.4022   -0.1743    0.0000 C.3     1  UNL1        0.0608
      9 C           4.2663   -0.6777    0.0000 C.3     1  UNL1       -0.0203
     10 C           5.1343   -0.1810    0.0000 C.3     1  UNL1       -0.0181
     11 C           5.9984   -0.6844    0.0000 C.ar    1  UNL1        0.0364
     12 C           7.7984   -0.7052    0.0000 C.ar    1  UNL1        0.1063
     13 C           6.9044   -0.1705    0.0000 C.ar    1  UNL1        0.1378
     14 C           2.8989   -1.0384    0.0000 C.3     1  UNL1       -0.0363
     15 C           3.9056    0.6897    0.0000 C.3     1  UNL1       -0.0363
     16 C           9.5304   -0.7052    0.0000 C.ar    1  UNL1        0.0719
     17 C           7.7984   -1.7052    0.0000 C.ar    1  UNL1        0.1463
     18 C           5.9984   -1.7260    0.0000 C.ar    1  UNL1        0.1270
     19 C           8.6644   -0.2052    0.0000 C.ar    1  UNL1        0.2041
     20 C          10.4243   -0.1705    0.0000 C.ar    1  UNL1        0.0160
     21 C           9.5304   -1.7052    0.0000 C.ar    1  UNL1        0.1432
     22 C           6.9044   -2.2398    0.0000 C.ar    1  UNL1        0.0234
     23 C          10.4128    0.8294    0.0000 C.3     1  UNL1       -0.0049
     24 C          11.3304   -0.6844    0.0000 C.ar    1  UNL1        0.1656
     25 C          10.4243   -2.2398    0.0000 C.ar    1  UNL1        0.0265
     26 C          11.3304   -1.7260    0.0000 C.ar    1  UNL1        0.1623
     27 C          11.2730    1.3394    0.0000 C.2     1  UNL1       -0.0808
     28 C          11.2614    2.3393    0.0000 C.2     1  UNL1       -0.0793
     29 C          12.1216    2.8493    0.0000 C.3     1  UNL1       -0.0440
     30 C          10.3897    2.8293    0.0000 C.3     1  UNL1       -0.0440
     31 C          13.0625   -0.6777    0.0000 C.3     1  UNL1        0.0790
     32 H           3.8660   -1.1511    0.0000 H       1  UNL1        0.0296
     33 H           4.6630   -1.1542    0.0000 H       1  UNL1        0.0296
     34 H           5.5346    0.2924    0.0000 H       1  UNL1        0.0316
     35 H           4.7376    0.2955    0.0000 H       1  UNL1        0.0316
     36 H           4.4413    0.3777    0.0000 H       1  UNL1        0.0257
     37 H           4.2176    1.2255    0.0000 H       1  UNL1        0.0257
     38 H           3.3698    1.0018    0.0000 H       1  UNL1        0.0257
     39 H           2.3632   -0.7264    0.0000 H       1  UNL1        0.0257
     40 H           2.5868   -1.5742    0.0000 H       1  UNL1        0.0257
     41 H           3.4346   -1.3505    0.0000 H       1  UNL1        0.0257
     42 H           6.9116   -2.8598    0.0000 H       1  UNL1        0.0691
     43 H          10.1940    1.4095    0.0000 H       1  UNL1        0.0357
     44 H           9.8035    0.7147    0.0000 H       1  UNL1        0.0357
     45 H           2.0000    0.0211    0.0000 H       1  UNL1        0.2101
     46 H          10.4172   -2.8598    0.0000 H       1  UNL1        0.0692
     47 H           6.3827    1.1456    0.0000 H       1  UNL1        0.2922
     48 H          11.8135    1.0356    0.0000 H       1  UNL1        0.0575
     49 H           5.1367   -2.8493    0.0000 H       1  UNL1        0.2921
     50 H          12.1921   -2.8493    0.0000 H       1  UNL1        0.2923
     51 H          10.6934    3.3698    0.0000 H       1  UNL1        0.0274
     52 H           9.8492    3.1331    0.0000 H       1  UNL1        0.0274
     53 H          12.4378    2.3160    0.0000 H       1  UNL1        0.0274
     54 H          12.6549    3.1655    0.0000 H       1  UNL1        0.0274
     55 H          11.8054    3.3826    0.0000 H       1  UNL1        0.0274
     56 H          10.0859    2.2888    0.0000 H       1  UNL1        0.0274
     57 H          12.7545   -1.2158    0.0000 H       1  UNL1        0.0660
     58 H          13.6006   -0.9856    0.0000 H       1  UNL1        0.0660
     59 H          13.3704   -0.1396    0.0000 H       1  UNL1        0.0660
@<TRIPOS>BOND
     1     1     8    1
     2     1    45    1
     3     2    17   ar
     4     2    21   ar
     5     3    13    1
     6     3    47    1
     7     4    18    1
     8     4    49    1
     9     5    19    2
    10     6    24    1
    11     6    31    1
    12     7    26    1
    13     7    50    1
    14     8     9    1
    15     8    14    1
    16     8    15    1
    17     9    10    1
    18     9    32    1
    19     9    33    1
    20    10    11    1
    21    10    34    1
    22    10    35    1
    23    11    13   ar
    24    11    18   ar
    25    12    13   ar
    26    12    17   ar
    27    12    19   ar
    28    14    39    1
    29    14    40    1
    30    14    41    1
    31    15    36    1
    32    15    37    1
    33    15    38    1
    34    16    19   ar
    35    16    20   ar
    36    16    21   ar
    37    17    22   ar
    38    18    22   ar
    39    20    23    1
    40    20    24   ar
    41    21    25   ar
    42    22    42    1
    43    23    27    1
    44    23    43    1
    45    23    44    1
    46    24    26   ar
    47    25    26   ar
    48    25    46    1
    49    27    28    2
    50    27    48    1
    51    28    29    1
    52    28    30    1
    53    29    53    1
    54    29    54    1
    55    29    55    1
    56    30    51    1
    57    30    52    1
    58    30    56    1
    59    31    57    1
    60    31    58    1
    61    31    59    1
