@<TRIPOS>MOLECULE
IMPHY011812
 37 40 0 0 0
SMALL
GASTEIGER

@<TRIPOS>ATOM
      1 O           2.0000    1.4626    0.0000 O.2     1  UNL1       -0.2753
      2 N           5.5322    1.4623    0.0000 N.3     1  UNL1       -0.2971
      3 N           6.5202   -2.7279    0.0000 N.ar    1  UNL1       -0.3604
      4 N           2.8602    2.9659    0.0000 N.am    1  UNL1       -0.3288
      5 C           5.5161    0.4208    0.0000 C.3     1  UNL1        0.0397
      6 C           4.6501   -0.0792    0.0000 C.2     1  UNL1       -0.0254
      7 C           6.3821   -0.0792    0.0000 C.3     1  UNL1       -0.0059
      8 C           4.6341    1.9900    0.0000 C.3     1  UNL1        0.0138
      9 C           3.7320    1.4692    0.0000 C.3     1  UNL1        0.0667
     10 C           6.3821   -1.0792    0.0000 C.ar    1  UNL1       -0.0200
     11 C           4.6501   -1.0792    0.0000 C.ar    1  UNL1       -0.0112
     12 C           5.5161   -1.5792    0.0000 C.ar    1  UNL1        0.0103
     13 C           3.7401    0.4276    0.0000 C.2     1  UNL1       -0.0658
     14 C           5.5322   -2.6207    0.0000 C.ar    1  UNL1        0.0473
     15 C           6.4039    1.9522    0.0000 C.3     1  UNL1       -0.0121
     16 C           7.0000   -1.8576    0.0000 C.ar    1  UNL1        0.0060
     17 C           3.7401   -1.5860    0.0000 C.ar    1  UNL1       -0.0536
     18 C           2.8641    1.9659    0.0000 C.2     1  UNL1        0.2186
     19 C           4.6341   -3.1485    0.0000 C.ar    1  UNL1       -0.0378
     20 C           3.7320   -2.6276    0.0000 C.ar    1  UNL1       -0.0592
     21 H           6.2555    0.8401    0.0000 H       1  UNL1        0.0515
     22 H           6.9927   -0.1869    0.0000 H       1  UNL1        0.0332
     23 H           6.5942    0.5034    0.0000 H       1  UNL1        0.0332
     24 H           5.0351    2.4630    0.0000 H       1  UNL1        0.0437
     25 H           4.2368    2.4660    0.0000 H       1  UNL1        0.0437
     26 H           3.7308    2.0892    0.0000 H       1  UNL1        0.0450
     27 H           3.2068    0.1114    0.0000 H       1  UNL1        0.0583
     28 H           6.7077    1.4118    0.0000 H       1  UNL1        0.0391
     29 H           6.9444    2.2560    0.0000 H       1  UNL1        0.0391
     30 H           6.1001    2.4927    0.0000 H       1  UNL1        0.0391
     31 H           7.6179   -1.8058    0.0000 H       1  UNL1        0.0810
     32 H           3.2068   -1.2699    0.0000 H       1  UNL1        0.0624
     33 H           6.8062   -3.2780    0.0000 H       1  UNL1        0.1653
     34 H           4.6365   -3.7685    0.0000 H       1  UNL1        0.0638
     35 H           3.1939   -2.9356    0.0000 H       1  UNL1        0.0618
     36 H           2.3221    3.2738    0.0000 H       1  UNL1        0.1449
     37 H           3.3960    3.2780    0.0000 H       1  UNL1        0.1449
@<TRIPOS>BOND
     1     1    18    2
     2     2     5    1
     3     2     8    1
     4     2    15    1
     5     3    14   ar
     6     3    16   ar
     7     3    33    1
     8     4    18   am
     9     4    36    1
    10     4    37    1
    11     5     6    1
    12     5     7    1
    13     5    21    1
    14     6    11    1
    15     6    13    2
    16     7    10    1
    17     7    22    1
    18     7    23    1
    19     8     9    1
    20     8    24    1
    21     8    25    1
    22     9    13    1
    23     9    18    1
    24     9    26    1
    25    10    12   ar
    26    10    16   ar
    27    11    12   ar
    28    11    17   ar
    29    12    14   ar
    30    13    27    1
    31    14    19   ar
    32    15    28    1
    33    15    29    1
    34    15    30    1
    35    16    31    1
    36    17    20   ar
    37    17    32    1
    38    19    20   ar
    39    19    34    1
    40    20    35    1
