@<TRIPOS>MOLECULE
IMPHY008269
 59 61 0 0 0
SMALL
GASTEIGER

@<TRIPOS>ATOM
      1 O           6.3580   -0.1897    0.0000 O.3     1  UNL1       -0.4823
      2 O           6.3465    2.8796    0.0000 O.2     1  UNL1       -0.2917
      3 O           2.8660   -0.1550    0.0000 O.3     1  UNL1       -0.4946
      4 O           7.2564   -1.6758    0.0000 O.3     1  UNL1       -0.4945
      5 O           9.0000    1.3175    0.0000 O.3     1  UNL1       -0.4945
      6 O           4.5981    2.8450    0.0000 O.3     1  UNL1       -0.5058
      7 O          10.7205   -1.6892    0.0000 O.3     1  UNL1       -0.4949
      8 C           7.2641    0.3242    0.0000 C.3     1  UNL1        0.1390
      9 C           7.2641    1.3658    0.0000 C.3     1  UNL1        0.0522
     10 C           5.4641    0.3450    0.0000 C.ar    1  UNL1        0.1423
     11 C           5.4641    1.3450    0.0000 C.ar    1  UNL1        0.1009
     12 C           8.1282   -0.1792    0.0000 C.ar    1  UNL1        0.0764
     13 C           6.3580    1.8797    0.0000 C.2     1  UNL1        0.1740
     14 C           4.5981   -0.1550    0.0000 C.ar    1  UNL1        0.0405
     15 C           4.5981    1.8450    0.0000 C.ar    1  UNL1        0.1343
     16 C           4.5981   -1.1550    0.0000 C.3     1  UNL1       -0.0023
     17 C           3.7320    0.3450    0.0000 C.ar    1  UNL1        0.1305
     18 C           8.1244   -1.1791    0.0000 C.ar    1  UNL1        0.1338
     19 C           8.9962    0.3175    0.0000 C.ar    1  UNL1        0.1338
     20 C           3.7320    1.3450    0.0000 C.ar    1  UNL1        0.0227
     21 C           8.9884   -1.6825    0.0000 C.ar    1  UNL1        0.0224
     22 C           9.8602   -0.1858    0.0000 C.ar    1  UNL1        0.0224
     23 C           9.8564   -1.1858    0.0000 C.ar    1  UNL1        0.1271
     24 C           3.7320   -1.6550    0.0000 C.2     1  UNL1       -0.0807
     25 C           3.7320   -2.6550    0.0000 C.2     1  UNL1       -0.0793
     26 C           2.0000    0.3450    0.0000 C.3     1  UNL1        0.0788
     27 C           7.2526   -2.6758    0.0000 C.3     1  UNL1        0.0788
     28 C           9.8680    1.8142    0.0000 C.3     1  UNL1        0.0788
     29 C           2.8660   -3.1550    0.0000 C.3     1  UNL1       -0.0440
     30 C           4.5981   -3.1550    0.0000 C.3     1  UNL1       -0.0440
     31 C          11.5884   -1.1925    0.0000 C.3     1  UNL1        0.0788
     32 H           7.2605   -0.2958    0.0000 H       1  UNL1        0.0791
     33 H           7.8750    1.2597    0.0000 H       1  UNL1        0.0385
     34 H           7.4732    1.9495    0.0000 H       1  UNL1        0.0385
     35 H           4.8101   -1.7376    0.0000 H       1  UNL1        0.0358
     36 H           5.2087   -1.0473    0.0000 H       1  UNL1        0.0358
     37 H           3.1951    1.6550    0.0000 H       1  UNL1        0.0691
     38 H           8.9860   -2.3025    0.0000 H       1  UNL1        0.0691
     39 H          10.3984    0.1221    0.0000 H       1  UNL1        0.0691
     40 H           3.1951   -1.3450    0.0000 H       1  UNL1        0.0575
     41 H           4.0611    3.1550    0.0000 H       1  UNL1        0.2922
     42 H           2.3100    0.8819    0.0000 H       1  UNL1        0.0660
     43 H           1.4631    0.6550    0.0000 H       1  UNL1        0.0660
     44 H           1.6900   -0.1919    0.0000 H       1  UNL1        0.0660
     45 H           6.6326   -2.6734    0.0000 H       1  UNL1        0.0660
     46 H           7.2502   -3.2958    0.0000 H       1  UNL1        0.0660
     47 H           7.8725   -2.6782    0.0000 H       1  UNL1        0.0660
     48 H          10.1759    1.2760    0.0000 H       1  UNL1        0.0660
     49 H          10.4061    2.1221    0.0000 H       1  UNL1        0.0660
     50 H           9.5600    2.3523    0.0000 H       1  UNL1        0.0660
     51 H           2.5560   -2.6181    0.0000 H       1  UNL1        0.0274
     52 H           4.2881   -3.6919    0.0000 H       1  UNL1        0.0274
     53 H           5.1350   -3.4650    0.0000 H       1  UNL1        0.0274
     54 H           4.9081   -2.6181    0.0000 H       1  UNL1        0.0274
     55 H           2.3291   -3.4650    0.0000 H       1  UNL1        0.0274
     56 H           3.1760   -3.6919    0.0000 H       1  UNL1        0.0274
     57 H          11.8964   -1.7306    0.0000 H       1  UNL1        0.0660
     58 H          12.1266   -0.8846    0.0000 H       1  UNL1        0.0660
     59 H          11.2805   -0.6544    0.0000 H       1  UNL1        0.0660
@<TRIPOS>BOND
     1     1     8    1
     2     1    10    1
     3     2    13    2
     4     3    17    1
     5     3    26    1
     6     4    18    1
     7     4    27    1
     8     5    19    1
     9     5    28    1
    10     6    15    1
    11     6    41    1
    12     7    23    1
    13     7    31    1
    14     8     9    1
    15     8    12    1
    16     8    32    1
    17     9    13    1
    18     9    33    1
    19     9    34    1
    20    10    11   ar
    21    10    14   ar
    22    11    13    1
    23    11    15   ar
    24    12    18   ar
    25    12    19   ar
    26    14    16    1
    27    14    17   ar
    28    15    20   ar
    29    16    24    1
    30    16    35    1
    31    16    36    1
    32    17    20   ar
    33    18    21   ar
    34    19    22   ar
    35    20    37    1
    36    21    23   ar
    37    21    38    1
    38    22    23   ar
    39    22    39    1
    40    24    25    2
    41    24    40    1
    42    25    29    1
    43    25    30    1
    44    26    42    1
    45    26    43    1
    46    26    44    1
    47    27    45    1
    48    27    46    1
    49    27    47    1
    50    28    48    1
    51    28    49    1
    52    28    50    1
    53    29    51    1
    54    29    55    1
    55    29    56    1
    56    30    52    1
    57    30    53    1
    58    30    54    1
    59    31    57    1
    60    31    58    1
    61    31    59    1
