@<TRIPOS>MOLECULE
IMPHY002567
 137 144 0 0 0
SMALL
GASTEIGER

@<TRIPOS>ATOM
      1 O           7.7331    0.5900    0.0000 O.3     1  UNL1       -0.3448
      2 O           9.5542   -1.1808    0.0000 O.3     1  UNL1       -0.3944
      3 O          16.6462    3.7109    0.0000 O.3     1  UNL1       -0.4802
      4 O          15.7976    2.2010    0.0000 O.2     1  UNL1       -0.2504
      5 O           6.8671    2.0900    0.0000 O.3     1  UNL1       -0.3461
      6 O           6.0010   -0.4100    0.0000 O.3     1  UNL1       -0.3377
      7 O           4.2690    0.5900    0.0000 O.3     1  UNL1       -0.3864
      8 O           4.2690    2.5900    0.0000 O.3     1  UNL1       -0.3869
      9 O           4.2690   -0.4100    0.0000 O.3     1  UNL1       -0.3405
     10 O           6.0010   -2.4100    0.0000 O.3     1  UNL1       -0.3378
     11 O           4.2690   -3.4100    0.0000 O.3     1  UNL1       -0.3864
     12 O           2.5369   -2.4100    0.0000 O.3     1  UNL1       -0.3865
     13 O           5.1350   -3.9100    0.0000 O.3     1  UNL1       -0.3461
     14 O           2.5369    0.5900    0.0000 O.3     1  UNL1       -0.3924
     15 O           7.7331   -3.4100    0.0000 O.3     1  UNL1       -0.3841
     16 O           7.7331   -5.4100    0.0000 O.3     1  UNL1       -0.3864
     17 O           6.0010   -6.4100    0.0000 O.3     1  UNL1       -0.3869
     18 C          12.2541    2.1598    0.0000 C.3     1  UNL1       -0.0194
     19 C          11.3862    2.6565    0.0000 C.3     1  UNL1       -0.0257
     20 C          10.4781    2.1461    0.0000 C.3     1  UNL1       -0.0249
     21 C          13.1182    2.6631    0.0000 C.3     1  UNL1       -0.0051
     22 C          10.4741    1.1045    0.0000 C.3     1  UNL1       -0.0255
     23 C          12.2742    1.1184    0.0000 C.3     1  UNL1       -0.0463
     24 C           9.5408    0.5512    0.0000 C.3     1  UNL1        0.0206
     25 C          11.3782    0.5872    0.0000 C.3     1  UNL1       -0.0485
     26 C          13.1144    3.6631    0.0000 C.2     1  UNL1       -0.0629
     27 C           9.5491    2.7066    0.0000 C.3     1  UNL1       -0.0447
     28 C          11.3823    3.6564    0.0000 C.3     1  UNL1       -0.0306
     29 C          14.0062    4.2012    0.0000 C.3     1  UNL1       -0.0031
     30 C          14.0142    2.1319    0.0000 C.3     1  UNL1       -0.0424
     31 C          14.9143    3.6909    0.0000 C.3     1  UNL1        0.0741
     32 C           8.5991    1.0900    0.0000 C.3     1  UNL1        0.0695
     33 C          12.8999    1.3962    0.0000 C.3     1  UNL1       -0.0585
     34 C          14.9183    2.6493    0.0000 C.3     1  UNL1       -0.0359
     35 C          10.4820    3.1461    0.0000 C.3     1  UNL1       -0.0590
     36 C           8.6033    2.1750    0.0000 C.3     1  UNL1       -0.0254
     37 C          12.2464    4.1598    0.0000 C.2     1  UNL1       -0.0836
     38 C          13.4639    1.7248    0.0000 C.3     1  UNL1       -0.0553
     39 C          13.9770    5.2858    0.0000 C.3     1  UNL1       -0.0403
     40 C          15.8560    4.2298    0.0000 C.3     1  UNL1       -0.0362
     41 C          14.9060    5.8463    0.0000 C.3     1  UNL1       -0.0343
     42 C          10.0475   -0.3110    0.0000 C.3     1  UNL1        0.0522
     43 C           9.0475   -0.3187    0.0000 C.3     1  UNL1       -0.0548
     44 C          15.8518    5.3147    0.0000 C.3     1  UNL1       -0.0468
     45 C          15.7860    3.2009    0.0000 C.2     1  UNL1        0.3115
     46 C          15.3926    6.7200    0.0000 C.3     1  UNL1       -0.0598
     47 C          14.3927    6.7046    0.0000 C.3     1  UNL1       -0.0598
     48 C           6.8671    1.0900    0.0000 C.3     1  UNL1        0.1882
     49 C           6.0010    0.5900    0.0000 C.3     1  UNL1        0.1406
     50 C           5.1350    1.0900    0.0000 C.3     1  UNL1        0.1141
     51 C           6.0010    2.5900    0.0000 C.3     1  UNL1        0.0792
     52 C           5.1350    2.0900    0.0000 C.3     1  UNL1        0.1069
     53 C           5.1350   -0.9100    0.0000 C.3     1  UNL1        0.1889
     54 C           5.1350   -1.9100    0.0000 C.3     1  UNL1        0.1406
     55 C           4.2690   -2.4100    0.0000 C.3     1  UNL1        0.1144
     56 C           3.4030   -0.9100    0.0000 C.3     1  UNL1        0.1130
     57 C           3.4030   -1.9100    0.0000 C.3     1  UNL1        0.1119
     58 C           2.5369   -0.4100    0.0000 C.3     1  UNL1        0.0730
     59 C           6.0010   -3.4100    0.0000 C.3     1  UNL1        0.1881
     60 C           6.8671   -3.9100    0.0000 C.3     1  UNL1        0.1341
     61 C           6.8671   -4.9100    0.0000 C.3     1  UNL1        0.1137
     62 C           5.1350   -4.9100    0.0000 C.3     1  UNL1        0.0792
     63 C           6.0010   -5.4100    0.0000 C.3     1  UNL1        0.1069
     64 H          11.9219    2.9685    0.0000 H       1  UNL1        0.0315
     65 H          10.4789    0.4845    0.0000 H       1  UNL1        0.0313
     66 H          12.4945    0.5388    0.0000 H       1  UNL1        0.0271
     67 H          12.8829    1.2362    0.0000 H       1  UNL1        0.0271
     68 H          10.9827    0.1097    0.0000 H       1  UNL1        0.0268
     69 H          11.7810    0.1158    0.0000 H       1  UNL1        0.0268
     70 H           9.9555    3.1748    0.0000 H       1  UNL1        0.0271
     71 H           9.1574    3.1872    0.0000 H       1  UNL1        0.0271
     72 H          11.1680    4.2382    0.0000 H       1  UNL1        0.0310
     73 H          10.7722    3.5464    0.0000 H       1  UNL1        0.0310
     74 H          14.5371    4.5215    0.0000 H       1  UNL1        0.0357
     75 H          13.6114    1.6606    0.0000 H       1  UNL1        0.0274
     76 H          14.4097    1.6544    0.0000 H       1  UNL1        0.0274
     77 H           8.0628    1.4011    0.0000 H       1  UNL1        0.0603
     78 H          12.4265    0.9959    0.0000 H       1  UNL1        0.0235
     79 H          13.3002    0.9228    0.0000 H       1  UNL1        0.0235
     80 H          13.3733    1.7966    0.0000 H       1  UNL1        0.0235
     81 H          15.1296    2.0664    0.0000 H       1  UNL1        0.0276
     82 H          15.5287    2.7577    0.0000 H       1  UNL1        0.0276
     83 H          11.1020    3.1437    0.0000 H       1  UNL1        0.0235
     84 H          10.4844    3.7661    0.0000 H       1  UNL1        0.0235
     85 H           9.8620    3.1485    0.0000 H       1  UNL1        0.0235
     86 H           8.3965    2.7595    0.0000 H       1  UNL1        0.0290
     87 H           7.9920    2.0713    0.0000 H       1  UNL1        0.0290
     88 H          12.2440    4.7798    0.0000 H       1  UNL1        0.0572
     89 H          12.8821    1.5105    0.0000 H       1  UNL1        0.0238
     90 H          13.6782    1.1430    0.0000 H       1  UNL1        0.0238
     91 H          14.0456    1.9391    0.0000 H       1  UNL1        0.0238
     92 H          13.7522    5.8637    0.0000 H       1  UNL1        0.0276
     93 H          13.3692    5.1633    0.0000 H       1  UNL1        0.0276
     94 H          16.0673    3.6469    0.0000 H       1  UNL1        0.0276
     95 H          16.4664    4.3382    0.0000 H       1  UNL1        0.0276
     96 H          10.5255   -0.7058    0.0000 H       1  UNL1        0.0563
     97 H          10.5194    0.0912    0.0000 H       1  UNL1        0.0563
     98 H           8.5082   -0.0128    0.0000 H       1  UNL1        0.0237
     99 H           8.7417   -0.8580    0.0000 H       1  UNL1        0.0237
    100 H           9.5868   -0.6245    0.0000 H       1  UNL1        0.0237
    101 H          16.4631    5.2110    0.0000 H       1  UNL1        0.0271
    102 H          16.0586    5.8992    0.0000 H       1  UNL1        0.0271
    103 H          14.9248    7.0228    0.0000 H       1  UNL1        0.0235
    104 H          15.9342    6.4183    0.0000 H       1  UNL1        0.0235
    105 H          14.0744    7.2366    0.0000 H       1  UNL1        0.0235
    106 H          15.6942    7.2616    0.0000 H       1  UNL1        0.0235
    107 H          14.8509    7.0216    0.0000 H       1  UNL1        0.0235
    108 H          13.8606    6.3863    0.0000 H       1  UNL1        0.0235
    109 H           6.8671    0.4700    0.0000 H       1  UNL1        0.0937
    110 H           9.8683   -1.7154    0.0000 H       1  UNL1        0.2094
    111 H          17.1867    3.4071    0.0000 H       1  UNL1        0.2951
    112 H           5.4641    0.2800    0.0000 H       1  UNL1        0.0675
    113 H           4.5981    1.4000    0.0000 H       1  UNL1        0.0648
    114 H           6.3996    3.0650    0.0000 H       1  UNL1        0.0587
    115 H           5.6025    3.0650    0.0000 H       1  UNL1        0.0587
    116 H           5.1350    2.7100    0.0000 H       1  UNL1        0.0643
    117 H           5.1350   -0.2900    0.0000 H       1  UNL1        0.0938
    118 H           3.7320    0.9000    0.0000 H       1  UNL1        0.2100
    119 H           4.2690    3.2100    0.0000 H       1  UNL1        0.2100
    120 H           5.1350   -2.5300    0.0000 H       1  UNL1        0.0675
    121 H           3.7320   -2.7200    0.0000 H       1  UNL1        0.0648
    122 H           3.4030   -0.2900    0.0000 H       1  UNL1        0.0647
    123 H           2.8660   -1.6000    0.0000 H       1  UNL1        0.0647
    124 H           1.9264   -0.3023    0.0000 H       1  UNL1        0.0584
    125 H           2.3249   -0.9926    0.0000 H       1  UNL1        0.0584
    126 H           6.5380   -3.1000    0.0000 H       1  UNL1        0.0937
    127 H           3.7320   -3.7200    0.0000 H       1  UNL1        0.2100
    128 H           2.0000   -2.1000    0.0000 H       1  UNL1        0.2100
    129 H           7.4040   -4.2200    0.0000 H       1  UNL1        0.0671
    130 H           2.0000    0.9000    0.0000 H       1  UNL1        0.2095
    131 H           6.8671   -5.5300    0.0000 H       1  UNL1        0.0647
    132 H           4.5244   -4.8023    0.0000 H       1  UNL1        0.0587
    133 H           4.9230   -5.4926    0.0000 H       1  UNL1        0.0587
    134 H           5.4641   -5.7200    0.0000 H       1  UNL1        0.0643
    135 H           8.2700   -3.7200    0.0000 H       1  UNL1        0.2101
    136 H           7.7331   -6.0300    0.0000 H       1  UNL1        0.2100
    137 H           5.4641   -6.7200    0.0000 H       1  UNL1        0.2100
@<TRIPOS>BOND
     1     1    32    1
     2     1    48    1
     3     2    42    1
     4     2   110    1
     5     3    45    1
     6     3   111    1
     7     4    45    2
     8     5    48    1
     9     5    51    1
    10     6    49    1
    11     6    53    1
    12     7    50    1
    13     7   118    1
    14     8    52    1
    15     8   119    1
    16     9    53    1
    17     9    56    1
    18    10    54    1
    19    10    59    1
    20    11    55    1
    21    11   127    1
    22    12    57    1
    23    12   128    1
    24    13    59    1
    25    13    62    1
    26    14    58    1
    27    14   130    1
    28    15    60    1
    29    15   135    1
    30    16    61    1
    31    16   136    1
    32    17    63    1
    33    17   137    1
    34    18    19    1
    35    18    21    1
    36    18    23    1
    37    18    33    1
    38    19    20    1
    39    19    28    1
    40    19    64    1
    41    20    22    1
    42    20    27    1
    43    20    35    1
    44    21    26    1
    45    21    30    1
    46    21    38    1
    47    22    24    1
    48    22    25    1
    49    22    65    1
    50    23    25    1
    51    23    66    1
    52    23    67    1
    53    24    32    1
    54    24    42    1
    55    24    43    1
    56    25    68    1
    57    25    69    1
    58    26    29    1
    59    26    37    2
    60    27    36    1
    61    27    70    1
    62    27    71    1
    63    28    37    1
    64    28    72    1
    65    28    73    1
    66    29    31    1
    67    29    39    1
    68    29    74    1
    69    30    34    1
    70    30    75    1
    71    30    76    1
    72    31    34    1
    73    31    40    1
    74    31    45    1
    75    32    36    1
    76    32    77    1
    77    33    78    1
    78    33    79    1
    79    33    80    1
    80    34    81    1
    81    34    82    1
    82    35    83    1
    83    35    84    1
    84    35    85    1
    85    36    86    1
    86    36    87    1
    87    37    88    1
    88    38    89    1
    89    38    90    1
    90    38    91    1
    91    39    41    1
    92    39    92    1
    93    39    93    1
    94    40    44    1
    95    40    94    1
    96    40    95    1
    97    41    44    1
    98    41    46    1
    99    41    47    1
   100    42    96    1
   101    42    97    1
   102    43    98    1
   103    43    99    1
   104    43   100    1
   105    44   101    1
   106    44   102    1
   107    46   104    1
   108    46   106    1
   109    46   107    1
   110    47   103    1
   111    47   105    1
   112    47   108    1
   113    48    49    1
   114    48   109    1
   115    49    50    1
   116    49   112    1
   117    50    52    1
   118    50   113    1
   119    51    52    1
   120    51   114    1
   121    51   115    1
   122    52   116    1
   123    53    54    1
   124    53   117    1
   125    54    55    1
   126    54   120    1
   127    55    57    1
   128    55   121    1
   129    56    57    1
   130    56    58    1
   131    56   122    1
   132    57   123    1
   133    58   124    1
   134    58   125    1
   135    59    60    1
   136    59   126    1
   137    60    61    1
   138    60   129    1
   139    61    63    1
   140    61   131    1
   141    62    63    1
   142    62   132    1
   143    62   133    1
   144    63   134    1
