@<TRIPOS>MOLECULE
IMPHY017545
 21 22 0 0 0
SMALL
GASTEIGER

@<TRIPOS>ATOM
      1 O           3.7320   -1.3623    0.0000 O.3     1  UNL1       -0.5044
      2 N           5.4920   -0.3970    0.0000 N.ar    1  UNL1       -0.2513
      3 C           4.5981    1.1377    0.0000 C.ar    1  UNL1        0.0040
      4 C           4.5981    0.1377    0.0000 C.ar    1  UNL1        0.1125
      5 C           2.8660    0.1377    0.0000 C.ar    1  UNL1       -0.0069
      6 C           3.7320   -0.3623    0.0000 C.ar    1  UNL1        0.1455
      7 C           3.7320    1.6377    0.0000 C.ar    1  UNL1       -0.0521
      8 C           2.8660    1.1377    0.0000 C.ar    1  UNL1       -0.0547
      9 C           5.4920    1.6723    0.0000 C.ar    1  UNL1       -0.0510
     10 C           2.0000   -0.3623    0.0000 C.3     1  UNL1       -0.0362
     11 C           6.3981    1.1585    0.0000 C.ar    1  UNL1       -0.0430
     12 C           6.3981    0.1169    0.0000 C.ar    1  UNL1        0.0284
     13 H           3.7320    2.2577    0.0000 H       1  UNL1        0.0624
     14 H           2.3291    1.4477    0.0000 H       1  UNL1        0.0622
     15 H           5.4848    2.2923    0.0000 H       1  UNL1        0.0625
     16 H           1.6900    0.1746    0.0000 H       1  UNL1        0.0279
     17 H           1.4631   -0.6723    0.0000 H       1  UNL1        0.0279
     18 H           2.3100   -0.8993    0.0000 H       1  UNL1        0.0279
     19 H           6.9338    1.4706    0.0000 H       1  UNL1        0.0633
     20 H           6.9338   -0.1952    0.0000 H       1  UNL1        0.0830
     21 H           3.1951   -1.6723    0.0000 H       1  UNL1        0.2922
@<TRIPOS>BOND
     1     1     6    1
     2     1    21    1
     3     2     4   ar
     4     2    12   ar
     5     3     4   ar
     6     3     7   ar
     7     3     9   ar
     8     4     6   ar
     9     5     6   ar
    10     5     8   ar
    11     5    10    1
    12     7     8   ar
    13     7    13    1
    14     8    14    1
    15     9    11   ar
    16     9    15    1
    17    10    16    1
    18    10    17    1
    19    10    18    1
    20    11    12   ar
    21    11    19    1
    22    12    20    1
