@<TRIPOS>MOLECULE
IMPHY001046
 82 87 0 0 0
SMALL
GASTEIGER

@<TRIPOS>ATOM
      1 O           6.5293   -2.9000    0.0000 O.3     1  UNL1       -0.2845
      2 O           7.9110    1.5467    0.0000 O.3     1  UNL1       -0.3302
      3 O           4.8866   -2.3507    0.0000 O.2     1  UNL1       -0.2175
      4 O           6.3709    2.0875    0.0000 O.2     1  UNL1       -0.4571
      5 O           7.5494   -5.3597    0.0000 O.3     1  UNL1       -0.3864
      6 O           5.5692   -5.7708    0.0000 O.3     1  UNL1       -0.3861
      7 O          10.2057    2.8977    0.0000 O.3     1  UNL1       -0.3864
      8 O           8.8711    4.4174    0.0000 O.3     1  UNL1       -0.3864
      9 O           4.2346   -4.2511    0.0000 O.3     1  UNL1       -0.3782
     10 O           6.8909    4.0063    0.0000 O.3     1  UNL1       -0.3829
     11 O           8.4890   -2.5010    0.0000 O.3     1  UNL1       -0.4601
     12 O          10.5518    0.9364    0.0000 O.3     1  UNL1       -0.4619
     13 O           4.3217    1.1392    0.0000 O.3     1  UNL1       -0.4507
     14 O           9.0313   -0.6972    0.0000 O.3     1  UNL1       -0.3801
     15 O          10.1317   -3.0504    0.0000 O.2     1  UNL1       -0.2479
     16 O          11.9957    0.1114    0.0000 O.2     1  UNL1       -0.2507
     17 O           2.5357   -1.9059    0.0000 O.3     1  UNL1       -0.5063
     18 O           5.1877    5.6392    0.0000 O.3     1  UNL1       -0.5068
     19 C           6.8810   -4.6160    0.0000 C.3     1  UNL1        0.1134
     20 C           5.8863   -4.8225    0.0000 C.3     1  UNL1        0.1212
     21 C           9.2242    2.7058    0.0000 C.3     1  UNL1        0.1130
     22 C           8.5540    3.4691    0.0000 C.3     1  UNL1        0.1152
     23 C           7.1920   -3.6489    0.0000 C.3     1  UNL1        0.1302
     24 C           8.8910    1.7462    0.0000 C.3     1  UNL1        0.1250
     25 C           5.2160   -4.0592    0.0000 C.3     1  UNL1        0.2034
     26 C           7.5594    3.2626    0.0000 C.3     1  UNL1        0.1454
     27 C           5.5494   -3.0996    0.0000 C.3     1  UNL1        0.4142
     28 C           7.2483    2.2955    0.0000 C.3     1  UNL1        0.2310
     29 C           8.1719   -3.4494    0.0000 C.3     1  UNL1        0.1215
     30 C           9.5537    0.9973    0.0000 C.3     1  UNL1        0.1212
     31 C           5.2038   -1.4023    0.0000 C.ar    1  UNL1        0.3644
     32 C           6.0538    1.1392    0.0000 C.2     1  UNL1        0.1676
     33 C           5.1877   -0.3608    0.0000 C.ar    1  UNL1        0.1241
     34 C           6.0538    0.1392    0.0000 C.2     1  UNL1        0.0036
     35 C           5.1877    1.6392    0.0000 C.2     1  UNL1        0.1771
     36 C           4.3217    0.1392    0.0000 C.ar    1  UNL1        0.1483
     37 C           4.3058   -1.9301    0.0000 C.ar    1  UNL1        0.0840
     38 C           9.7861   -1.3532    0.0000 C.3     1  UNL1        0.1616
     39 C           9.4689   -2.3015    0.0000 C.2     1  UNL1        0.3366
     40 C          10.6810   -0.9068    0.0000 C.3     1  UNL1        0.0813
     41 C          10.9981    0.0415    0.0000 C.2     1  UNL1        0.3102
     42 C           3.4117   -0.3677    0.0000 C.ar    1  UNL1        0.0234
     43 C           3.4037   -1.4093    0.0000 C.ar    1  UNL1        0.1293
     44 C           5.1877    2.6392    0.0000 C.ar    1  UNL1        0.0212
     45 C           6.0538    3.1392    0.0000 C.ar    1  UNL1       -0.0475
     46 C           4.3217    3.1392    0.0000 C.ar    1  UNL1       -0.0475
     47 C           6.0538    4.1392    0.0000 C.ar    1  UNL1       -0.0195
     48 C           4.3217    4.1392    0.0000 C.ar    1  UNL1       -0.0195
     49 C           5.1877    4.6392    0.0000 C.ar    1  UNL1        0.1169
     50 H           6.6877   -5.2051    0.0000 H       1  UNL1        0.0647
     51 H           5.2786   -4.9450    0.0000 H       1  UNL1        0.0650
     52 H           9.4243    3.2926    0.0000 H       1  UNL1        0.0647
     53 H           8.1422    3.9326    0.0000 H       1  UNL1        0.0648
     54 H           7.7553   -4.2854    0.0000 H       1  UNL1        0.0660
     55 H           9.7239    1.9158    0.0000 H       1  UNL1        0.0658
     56 H           4.8097   -3.5909    0.0000 H       1  UNL1        0.0747
     57 H           6.9530    3.1330    0.0000 H       1  UNL1        0.0683
     58 H           5.9576   -3.5662    0.0000 H       1  UNL1        0.1829
     59 H           6.6850    2.9321    0.0000 H       1  UNL1        0.1084
     60 H           8.1882   -4.0692    0.0000 H       1  UNL1        0.0725
     61 H           8.7851   -3.5410    0.0000 H       1  UNL1        0.0725
     62 H           8.9989    0.7206    0.0000 H       1  UNL1        0.0724
     63 H           9.6774    0.3898    0.0000 H       1  UNL1        0.0724
     64 H           7.3573   -5.9492    0.0000 H       1  UNL1        0.2100
     65 H           4.9616   -5.8945    0.0000 H       1  UNL1        0.2100
     66 H          10.4068    3.4842    0.0000 H       1  UNL1        0.2100
     67 H           9.4787    4.5411    0.0000 H       1  UNL1        0.2100
     68 H           4.0335   -4.8376    0.0000 H       1  UNL1        0.2104
     69 H           7.0830    4.5958    0.0000 H       1  UNL1        0.2102
     70 H           6.5907   -0.1708    0.0000 H       1  UNL1        0.0665
     71 H           4.3082   -2.5501    0.0000 H       1  UNL1        0.0749
     72 H           9.8643   -0.7381    0.0000 H       1  UNL1        0.0716
     73 H          10.8047   -1.5144    0.0000 H       1  UNL1        0.0409
     74 H          11.2998   -0.9446    0.0000 H       1  UNL1        0.0409
     75 H           2.8784   -0.0515    0.0000 H       1  UNL1        0.0691
     76 H           6.5907    2.8292    0.0000 H       1  UNL1        0.0626
     77 H           3.7848    2.8292    0.0000 H       1  UNL1        0.0626
     78 H           8.4451   -0.8991    0.0000 H       1  UNL1        0.2105
     79 H           2.0000   -1.5939    0.0000 H       1  UNL1        0.2921
     80 H           6.5907    4.4492    0.0000 H       1  UNL1        0.0654
     81 H           3.7848    4.4492    0.0000 H       1  UNL1        0.0654
     82 H           4.6508    5.9492    0.0000 H       1  UNL1        0.2921
@<TRIPOS>UNITY_ATOM_ATTR
3 1
charge 1
@<TRIPOS>BOND
     1     1    23    1
     2     1    27    1
     3     2    24    1
     4     2    28    1
     5     3    27    1
     6     3    31    2
     7     4    28    1
     8     4    32    1
     9    19     5    1
    10     5    64    1
    11     6    20    1
    12     6    65    1
    13    21     7    1
    14     7    66    1
    15     8    22    1
    16     8    67    1
    17    25     9    1
    18     9    68    1
    19    10    26    1
    20    10    69    1
    21    11    29    1
    22    11    39    1
    23    12    30    1
    24    12    41    1
    25    13    35    1
    26    13    36    1
    27    14    38    1
    28    14    78    1
    29    15    39    2
    30    16    41    2
    31    17    43    1
    32    17    79    1
    33    18    49    1
    34    18    82    1
    35    19    20    1
    36    19    23    1
    37    19    50    1
    38    20    25    1
    39    20    51    1
    40    21    22    1
    41    21    24    1
    42    21    52    1
    43    22    26    1
    44    22    53    1
    45    23    29    1
    46    23    54    1
    47    24    30    1
    48    24    55    1
    49    25    27    1
    50    25    56    1
    51    26    28    1
    52    26    57    1
    53    27    58    1
    54    28    59    1
    55    29    60    1
    56    29    61    1
    57    30    62    1
    58    30    63    1
    59    31    33   ar
    60    31    37   ar
    61    32    34    1
    62    32    35    2
    63    33    34    2
    64    33    36   ar
    65    34    70    1
    66    35    44    1
    67    36    42   ar
    68    37    43   ar
    69    37    71    1
    70    38    39    1
    71    38    40    1
    72    38    72    1
    73    40    41    1
    74    40    73    1
    75    40    74    1
    76    42    43   ar
    77    42    75    1
    78    44    45   ar
    79    44    46   ar
    80    45    47   ar
    81    45    76    1
    82    46    48   ar
    83    46    77    1
    84    47    49   ar
    85    47    80    1
    86    48    49   ar
    87    48    81    1
