@<TRIPOS>MOLECULE
IMPHY001982
 22 22 0 0 0
SMALL
GASTEIGER

@<TRIPOS>ATOM
      1 O           2.8660   -1.8100    0.0000 O.3     1  UNL1       -0.4922
      2 O           3.7320    2.6900    0.0000 O.3     1  UNL1       -0.4771
      3 O           2.0000    2.6900    0.0000 O.2     1  UNL1       -0.2451
      4 C           2.8660   -0.8100    0.0000 C.ar    1  UNL1        0.1205
      5 C           2.8660    1.1900    0.0000 C.ar    1  UNL1        0.0591
      6 C           3.7320   -0.3100    0.0000 C.ar    1  UNL1       -0.0192
      7 C           2.0000   -0.3100    0.0000 C.ar    1  UNL1       -0.0192
      8 C           2.0000   -2.3100    0.0000 C.3     1  UNL1        0.0868
      9 C           3.7320    0.6900    0.0000 C.ar    1  UNL1       -0.0443
     10 C           2.0000    0.6900    0.0000 C.ar    1  UNL1       -0.0443
     11 C           2.0000   -3.3100    0.0000 C.3     1  UNL1       -0.0307
     12 C           2.8660    2.1900    0.0000 C.2     1  UNL1        0.3368
     13 H           4.2690   -0.6200    0.0000 H       1  UNL1        0.0654
     14 H           1.4631   -0.6200    0.0000 H       1  UNL1        0.0654
     15 H           1.7880   -1.7274    0.0000 H       1  UNL1        0.0694
     16 H           1.3894   -2.4177    0.0000 H       1  UNL1        0.0694
     17 H           4.2690    1.0000    0.0000 H       1  UNL1        0.0627
     18 H           1.4631    1.0000    0.0000 H       1  UNL1        0.0627
     19 H           1.3800   -3.3100    0.0000 H       1  UNL1        0.0262
     20 H           2.0000   -3.9300    0.0000 H       1  UNL1        0.0262
     21 H           2.6200   -3.3100    0.0000 H       1  UNL1        0.0262
     22 H           3.7320    3.3100    0.0000 H       1  UNL1        0.2954
@<TRIPOS>BOND
     1     1     4    1
     2     1     8    1
     3     2    12    1
     4     2    22    1
     5     3    12    2
     6     4     6   ar
     7     4     7   ar
     8     5     9   ar
     9     5    10   ar
    10     5    12    1
    11     6     9   ar
    12     6    13    1
    13     7    10   ar
    14     7    14    1
    15     8    11    1
    16     8    15    1
    17     8    16    1
    18     9    17    1
    19    10    18    1
    20    11    19    1
    21    11    20    1
    22    11    21    1
