@<TRIPOS>MOLECULE
IMPHY015063
 32 33 0 0 0
SMALL
GASTEIGER

@<TRIPOS>ATOM
      1 O           3.5000   -0.1200    0.0000 O.3     1  UNL1       -0.4571
      2 O           3.5000   -1.8520    0.0000 O.2     1  UNL1       -0.2511
      3 C           6.0388    0.3800    0.0000 C.3     1  UNL1       -0.0161
      4 C           6.0388   -0.6200    0.0000 C.3     1  UNL1       -0.0102
      5 C           6.9054   -0.1200    0.0000 C.3     1  UNL1       -0.0393
      6 C           5.0878    0.6891    0.0000 C.3     1  UNL1       -0.0053
      7 C           6.0388    1.3800    0.0000 C.3     1  UNL1       -0.0404
      8 C           5.0878   -0.9290    0.0000 C.2     1  UNL1       -0.0330
      9 C           4.5000   -0.1200    0.0000 C.3     1  UNL1        0.1247
     10 C           6.9049    1.8800    0.0000 C.3     1  UNL1       -0.0621
     11 C           5.1728    1.8800    0.0000 C.3     1  UNL1       -0.0621
     12 C           4.7788   -1.8800    0.0000 C.2     1  UNL1       -0.0957
     13 C           3.0000   -0.9860    0.0000 C.2     1  UNL1        0.3045
     14 C           2.0000   -0.9860    0.0000 C.3     1  UNL1        0.0333
     15 H           6.2909   -1.1864    0.0000 H       1  UNL1        0.0352
     16 H           7.3039   -0.5949    0.0000 H       1  UNL1        0.0277
     17 H           7.3039    0.3550    0.0000 H       1  UNL1        0.0277
     18 H           5.3400    1.2554    0.0000 H       1  UNL1        0.0310
     19 H           4.5508    0.9991    0.0000 H       1  UNL1        0.0310
     20 H           6.0388    2.0000    0.0000 H       1  UNL1        0.0301
     21 H           4.2185    0.4325    0.0000 H       1  UNL1        0.0782
     22 H           7.2149    1.3431    0.0000 H       1  UNL1        0.0233
     23 H           7.4418    2.1900    0.0000 H       1  UNL1        0.0233
     24 H           6.5949    2.4170    0.0000 H       1  UNL1        0.0233
     25 H           5.4828    2.4170    0.0000 H       1  UNL1        0.0233
     26 H           4.6359    2.1900    0.0000 H       1  UNL1        0.0233
     27 H           4.8628    1.3431    0.0000 H       1  UNL1        0.0233
     28 H           4.1723   -2.0089    0.0000 H       1  UNL1        0.0536
     29 H           5.1936   -2.3408    0.0000 H       1  UNL1        0.0536
     30 H           2.0000   -0.3660    0.0000 H       1  UNL1        0.0342
     31 H           1.3800   -0.9860    0.0000 H       1  UNL1        0.0342
     32 H           2.0000   -1.6060    0.0000 H       1  UNL1        0.0342
@<TRIPOS>BOND
     1     1     9    1
     2     1    13    1
     3     2    13    2
     4     3     4    1
     5     3     5    1
     6     3     6    1
     7     3     7    1
     8     4     5    1
     9     4     8    1
    10     4    15    1
    11     5    16    1
    12     5    17    1
    13     6     9    1
    14     6    18    1
    15     6    19    1
    16     7    10    1
    17     7    11    1
    18     7    20    1
    19     8     9    1
    20     8    12    2
    21     9    21    1
    22    10    22    1
    23    10    23    1
    24    10    24    1
    25    11    25    1
    26    11    26    1
    27    11    27    1
    28    12    28    1
    29    12    29    1
    30    13    14    1
    31    14    30    1
    32    14    31    1
    33    14    32    1
