@<TRIPOS>MOLECULE
IMPHY002673
 51 54 0 0 0
SMALL
GASTEIGER

@<TRIPOS>ATOM
      1 O           4.2690   -1.4090    0.0000 O.3     1  UNL1       -0.3405
      2 O           6.0010   -1.4090    0.0000 O.3     1  UNL1       -0.3441
      3 O           4.2690   -4.4090    0.0000 O.3     1  UNL1       -0.3864
      4 O           2.5369   -3.4090    0.0000 O.3     1  UNL1       -0.3865
      5 O           6.0010   -3.4090    0.0000 O.3     1  UNL1       -0.3841
      6 O           2.5369   -0.4090    0.0000 O.3     1  UNL1       -0.3924
      7 O           9.5408   -0.3817    0.0000 O.3     1  UNL1       -0.5060
      8 O           6.9073    3.1396    0.0000 O.2     1  UNL1       -0.2866
      9 O          10.3791    1.1530    0.0000 O.2     1  UNL1       -0.2864
     10 O          11.2775    2.6534    0.0000 O.3     1  UNL1       -0.5060
     11 C           4.2690   -3.4090    0.0000 C.3     1  UNL1        0.1141
     12 C           3.4030   -2.9090    0.0000 C.3     1  UNL1        0.1119
     13 C           5.1350   -2.9090    0.0000 C.3     1  UNL1        0.1341
     14 C           3.4030   -1.9090    0.0000 C.3     1  UNL1        0.1130
     15 C           5.1350   -1.9090    0.0000 C.3     1  UNL1        0.1883
     16 C           2.5369   -1.4090    0.0000 C.3     1  UNL1        0.0730
     17 C           6.0010   -0.4090    0.0000 C.3     1  UNL1        0.0759
     18 C           6.8671    0.0910    0.0000 C.ar    1  UNL1       -0.0177
     19 C           7.7791    1.6430    0.0000 C.ar    1  UNL1        0.0369
     20 C           6.8711    1.1326    0.0000 C.ar    1  UNL1       -0.0446
     21 C           8.6471    1.1463    0.0000 C.ar    1  UNL1        0.0745
     22 C           7.7711   -0.4263    0.0000 C.ar    1  UNL1       -0.0141
     23 C           8.6671    0.1049    0.0000 C.ar    1  UNL1        0.1287
     24 C           7.7753    2.6430    0.0000 C.2     1  UNL1        0.1947
     25 C           8.6394    3.1463    0.0000 C.ar    1  UNL1        0.0366
     26 C           9.5073    2.6497    0.0000 C.ar    1  UNL1        0.0745
     27 C           9.5112    1.6497    0.0000 C.2     1  UNL1        0.2015
     28 C          10.4153    3.1600    0.0000 C.ar    1  UNL1        0.1283
     29 C           8.6193    4.1878    0.0000 C.ar    1  UNL1       -0.0500
     30 C          10.4194    4.2016    0.0000 C.ar    1  UNL1       -0.0194
     31 C           9.5153    4.7190    0.0000 C.ar    1  UNL1       -0.0576
     32 H           4.8059   -3.7190    0.0000 H       1  UNL1        0.0648
     33 H           3.4030   -3.5290    0.0000 H       1  UNL1        0.0647
     34 H           5.6720   -2.5990    0.0000 H       1  UNL1        0.0671
     35 H           3.4030   -1.2890    0.0000 H       1  UNL1        0.0647
     36 H           5.1350   -1.2890    0.0000 H       1  UNL1        0.0938
     37 H           1.9264   -1.3013    0.0000 H       1  UNL1        0.0584
     38 H           2.3249   -1.9916    0.0000 H       1  UNL1        0.0584
     39 H           3.7320   -4.7190    0.0000 H       1  UNL1        0.2100
     40 H           2.0000   -3.0990    0.0000 H       1  UNL1        0.2100
     41 H           6.5380   -3.0990    0.0000 H       1  UNL1        0.2101
     42 H           5.7890    0.1736    0.0000 H       1  UNL1        0.0611
     43 H           5.3905   -0.5166    0.0000 H       1  UNL1        0.0611
     44 H           6.3366    1.4468    0.0000 H       1  UNL1        0.0628
     45 H           2.0000   -0.0990    0.0000 H       1  UNL1        0.2095
     46 H           7.7759   -1.0463    0.0000 H       1  UNL1        0.0658
     47 H           8.0776    4.4894    0.0000 H       1  UNL1        0.0625
     48 H          10.9563    4.5116    0.0000 H       1  UNL1        0.0654
     49 H           9.5105    5.3390    0.0000 H       1  UNL1        0.0619
     50 H           9.5503   -1.0016    0.0000 H       1  UNL1        0.2922
     51 H          11.8168    2.9592    0.0000 H       1  UNL1        0.2922
@<TRIPOS>BOND
     1     1    14    1
     2     1    15    1
     3    15     2    1
     4     2    17    1
     5    11     3    1
     6     3    39    1
     7    12     4    1
     8     4    40    1
     9    13     5    1
    10     5    41    1
    11     6    16    1
    12     6    45    1
    13     7    23    1
    14     7    50    1
    15     8    24    2
    16     9    27    2
    17    10    28    1
    18    10    51    1
    19    11    12    1
    20    11    13    1
    21    11    32    1
    22    12    14    1
    23    12    33    1
    24    13    15    1
    25    13    34    1
    26    14    16    1
    27    14    35    1
    28    15    36    1
    29    16    37    1
    30    16    38    1
    31    17    18    1
    32    17    42    1
    33    17    43    1
    34    18    20   ar
    35    18    22   ar
    36    19    20   ar
    37    19    21   ar
    38    19    24    1
    39    20    44    1
    40    21    23   ar
    41    21    27    1
    42    22    23   ar
    43    22    46    1
    44    24    25    1
    45    25    26   ar
    46    25    29   ar
    47    26    27    1
    48    26    28   ar
    49    28    30   ar
    50    29    31   ar
    51    29    47    1
    52    30    31   ar
    53    30    48    1
    54    31    49    1
