@<TRIPOS>MOLECULE
IMPHY008541
 39 41 0 0 0
SMALL
GASTEIGER

@<TRIPOS>ATOM
      1 O           7.7435   -0.3105    0.0000 O.3     1  UNL1       -0.5065
      2 N           4.8717    2.5500    0.0000 N.ar    1  UNL1       -0.3541
      3 C           5.3717    1.0112    0.0000 C.ar    1  UNL1        0.0143
      4 C           4.3717    1.0112    0.0000 C.ar    1  UNL1        0.0080
      5 C           5.6808    1.9623    0.0000 C.ar    1  UNL1        0.0480
      6 C           6.0567    0.2265    0.0000 C.ar    1  UNL1        0.0075
      7 C           4.0627    1.9623    0.0000 C.ar    1  UNL1        0.0475
      8 C           5.7367   -0.7210    0.0000 C.3     1  UNL1       -0.0051
      9 C           3.6868    0.2265    0.0000 C.ar    1  UNL1       -0.0491
     10 C           7.0772    0.4352    0.0000 C.ar    1  UNL1        0.1210
     11 C           6.6962    2.1945    0.0000 C.ar    1  UNL1       -0.0343
     12 C           3.0473    2.1945    0.0000 C.ar    1  UNL1       -0.0375
     13 C           2.6663    0.4352    0.0000 C.ar    1  UNL1       -0.0497
     14 C           7.3991    1.4258    0.0000 C.ar    1  UNL1       -0.0179
     15 C           2.3444    1.4258    0.0000 C.ar    1  UNL1       -0.0569
     16 C           6.3972   -1.4718    0.0000 C.2     1  UNL1       -0.0808
     17 C           2.0000   -0.3105    0.0000 C.3     1  UNL1       -0.0397
     18 C           6.0772   -2.4192    0.0000 C.2     1  UNL1       -0.0793
     19 C           6.7377   -3.1700    0.0000 C.3     1  UNL1       -0.0440
     20 C           5.0967   -2.6158    0.0000 C.3     1  UNL1       -0.0440
     21 H           4.8717    3.1700    0.0000 H       1  UNL1        0.1659
     22 H           5.1927   -0.4236    0.0000 H       1  UNL1        0.0357
     23 H           5.3494   -1.2051    0.0000 H       1  UNL1        0.0357
     24 H           3.8852   -0.3609    0.0000 H       1  UNL1        0.0627
     25 H           6.8809    2.7863    0.0000 H       1  UNL1        0.0639
     26 H           2.8626    2.7863    0.0000 H       1  UNL1        0.0638
     27 H           8.0050    1.5571    0.0000 H       1  UNL1        0.0655
     28 H           1.7384    1.5571    0.0000 H       1  UNL1        0.0621
     29 H           7.0051   -1.3499    0.0000 H       1  UNL1        0.0575
     30 H           1.5376    0.1025    0.0000 H       1  UNL1        0.0278
     31 H           1.5869   -0.7729    0.0000 H       1  UNL1        0.0278
     32 H           2.4623   -0.7236    0.0000 H       1  UNL1        0.0278
     33 H           8.3504   -0.1840    0.0000 H       1  UNL1        0.2921
     34 H           6.2722   -3.5796    0.0000 H       1  UNL1        0.0274
     35 H           7.1472   -3.6356    0.0000 H       1  UNL1        0.0274
     36 H           7.2032   -2.7605    0.0000 H       1  UNL1        0.0274
     37 H           4.9748   -2.0079    0.0000 H       1  UNL1        0.0274
     38 H           4.4888   -2.7377    0.0000 H       1  UNL1        0.0274
     39 H           5.2186   -3.2237    0.0000 H       1  UNL1        0.0274
@<TRIPOS>BOND
     1     1    10    1
     2     1    33    1
     3     2     5   ar
     4     2     7   ar
     5     2    21    1
     6     3     4   ar
     7     3     5   ar
     8     3     6   ar
     9     4     7   ar
    10     4     9   ar
    11     5    11   ar
    12     6     8    1
    13     6    10   ar
    14     7    12   ar
    15     8    16    1
    16     8    22    1
    17     8    23    1
    18     9    13   ar
    19     9    24    1
    20    10    14   ar
    21    11    14   ar
    22    11    25    1
    23    12    15   ar
    24    12    26    1
    25    13    15   ar
    26    13    17    1
    27    14    27    1
    28    15    28    1
    29    16    18    2
    30    16    29    1
    31    17    30    1
    32    17    31    1
    33    17    32    1
    34    18    19    1
    35    18    20    1
    36    19    34    1
    37    19    35    1
    38    19    36    1
    39    20    37    1
    40    20    38    1
    41    20    39    1
