@<TRIPOS>MOLECULE
IMPHY002604
 152 151 0 0 0
SMALL
GASTEIGER

@<TRIPOS>ATOM
      1 O          15.8564    0.7500    0.0000 O.3     1  UNL1       -0.4646
      2 O          14.9904   -0.7500    0.0000 O.2     1  UNL1       -0.2509
      3 C          30.5788    0.2500    0.0000 C.3     1  UNL1       -0.0531
      4 C          31.4449    0.7500    0.0000 C.3     1  UNL1       -0.0531
      5 C          29.7128    0.7500    0.0000 C.3     1  UNL1       -0.0531
      6 C          32.3109    0.2500    0.0000 C.3     1  UNL1       -0.0531
      7 C          28.8468    0.2500    0.0000 C.3     1  UNL1       -0.0531
      8 C          33.1769    0.7500    0.0000 C.3     1  UNL1       -0.0531
      9 C          27.9808    0.7500    0.0000 C.3     1  UNL1       -0.0531
     10 C          34.0429    0.2500    0.0000 C.3     1  UNL1       -0.0531
     11 C          27.1147    0.2500    0.0000 C.3     1  UNL1       -0.0531
     12 C          34.9090    0.7500    0.0000 C.3     1  UNL1       -0.0531
     13 C          26.2487    0.7500    0.0000 C.3     1  UNL1       -0.0531
     14 C          35.7750    0.2500    0.0000 C.3     1  UNL1       -0.0531
     15 C          25.3827    0.2500    0.0000 C.3     1  UNL1       -0.0531
     16 C          24.5167    0.7500    0.0000 C.3     1  UNL1       -0.0531
     17 C          36.6410    0.7500    0.0000 C.3     1  UNL1       -0.0531
     18 C          23.6506    0.2500    0.0000 C.3     1  UNL1       -0.0531
     19 C          37.5070    0.2500    0.0000 C.3     1  UNL1       -0.0531
     20 C          22.7846    0.7500    0.0000 C.3     1  UNL1       -0.0531
     21 C          38.3731    0.7500    0.0000 C.3     1  UNL1       -0.0531
     22 C          21.9186    0.2500    0.0000 C.3     1  UNL1       -0.0531
     23 C          39.2391    0.2500    0.0000 C.3     1  UNL1       -0.0531
     24 C          21.0526    0.7500    0.0000 C.3     1  UNL1       -0.0531
     25 C          40.1051    0.7500    0.0000 C.3     1  UNL1       -0.0531
     26 C          20.1865    0.2500    0.0000 C.3     1  UNL1       -0.0531
     27 C          40.9711    0.2500    0.0000 C.3     1  UNL1       -0.0531
     28 C          19.3205    0.7500    0.0000 C.3     1  UNL1       -0.0530
     29 C          41.8372    0.7500    0.0000 C.3     1  UNL1       -0.0531
     30 C           8.9282    0.7500    0.0000 C.3     1  UNL1       -0.0531
     31 C           8.0622    0.2500    0.0000 C.3     1  UNL1       -0.0531
     32 C           9.7942    0.2500    0.0000 C.3     1  UNL1       -0.0531
     33 C           7.1962    0.7500    0.0000 C.3     1  UNL1       -0.0531
     34 C          10.6603    0.7500    0.0000 C.3     1  UNL1       -0.0531
     35 C           6.3301    0.2500    0.0000 C.3     1  UNL1       -0.0531
     36 C          18.4545    0.2500    0.0000 C.3     1  UNL1       -0.0500
     37 C          42.7032    0.2500    0.0000 C.3     1  UNL1       -0.0531
     38 C          11.5263    0.2500    0.0000 C.3     1  UNL1       -0.0530
     39 C           5.4641    0.7500    0.0000 C.3     1  UNL1       -0.0531
     40 C          12.3923    0.7500    0.0000 C.3     1  UNL1       -0.0526
     41 C           4.5981    0.2500    0.0000 C.3     1  UNL1       -0.0531
     42 C          17.5885    0.7500    0.0000 C.3     1  UNL1       -0.0185
     43 C          43.5692    0.7500    0.0000 C.3     1  UNL1       -0.0533
     44 C          13.2583    0.2500    0.0000 C.3     1  UNL1       -0.0430
     45 C           3.7320    0.7500    0.0000 C.3     1  UNL1       -0.0533
     46 C          16.7224    0.2500    0.0000 C.3     1  UNL1        0.0925
     47 C          44.4352    0.2500    0.0000 C.3     1  UNL1       -0.0559
     48 C          14.1244    0.7500    0.0000 C.3     1  UNL1        0.0449
     49 C           2.8660    0.2500    0.0000 C.3     1  UNL1       -0.0559
     50 C          14.9904    0.2500    0.0000 C.2     1  UNL1        0.3071
     51 C          45.3013    0.7500    0.0000 C.3     1  UNL1       -0.0653
     52 C           2.0000    0.7500    0.0000 C.3     1  UNL1       -0.0653
     53 H          30.1803   -0.2249    0.0000 H       1  UNL1        0.0265
     54 H          30.9774   -0.2249    0.0000 H       1  UNL1        0.0265
     55 H          31.8434    1.2250    0.0000 H       1  UNL1        0.0265
     56 H          31.0463    1.2250    0.0000 H       1  UNL1        0.0265
     57 H          30.1113    1.2250    0.0000 H       1  UNL1        0.0265
     58 H          29.3143    1.2250    0.0000 H       1  UNL1        0.0265
     59 H          31.9124   -0.2249    0.0000 H       1  UNL1        0.0265
     60 H          32.7094   -0.2249    0.0000 H       1  UNL1        0.0265
     61 H          28.4483   -0.2249    0.0000 H       1  UNL1        0.0265
     62 H          29.2453   -0.2249    0.0000 H       1  UNL1        0.0265
     63 H          33.5754    1.2250    0.0000 H       1  UNL1        0.0265
     64 H          32.7784    1.2250    0.0000 H       1  UNL1        0.0265
     65 H          28.3793    1.2250    0.0000 H       1  UNL1        0.0265
     66 H          27.5822    1.2250    0.0000 H       1  UNL1        0.0265
     67 H          33.6444   -0.2249    0.0000 H       1  UNL1        0.0265
     68 H          34.4415   -0.2249    0.0000 H       1  UNL1        0.0265
     69 H          26.7162   -0.2249    0.0000 H       1  UNL1        0.0265
     70 H          27.5133   -0.2249    0.0000 H       1  UNL1        0.0265
     71 H          35.3075    1.2250    0.0000 H       1  UNL1        0.0265
     72 H          34.5104    1.2250    0.0000 H       1  UNL1        0.0265
     73 H          26.6472    1.2250    0.0000 H       1  UNL1        0.0265
     74 H          25.8502    1.2250    0.0000 H       1  UNL1        0.0265
     75 H          35.3765   -0.2249    0.0000 H       1  UNL1        0.0265
     76 H          36.1735   -0.2249    0.0000 H       1  UNL1        0.0265
     77 H          24.9842   -0.2249    0.0000 H       1  UNL1        0.0265
     78 H          25.7812   -0.2249    0.0000 H       1  UNL1        0.0265
     79 H          37.0395    1.2250    0.0000 H       1  UNL1        0.0265
     80 H          36.2425    1.2250    0.0000 H       1  UNL1        0.0265
     81 H          24.9152    1.2250    0.0000 H       1  UNL1        0.0265
     82 H          24.1181    1.2250    0.0000 H       1  UNL1        0.0265
     83 H          23.2521   -0.2249    0.0000 H       1  UNL1        0.0265
     84 H          24.0492   -0.2249    0.0000 H       1  UNL1        0.0265
     85 H          37.1085   -0.2249    0.0000 H       1  UNL1        0.0265
     86 H          37.9056   -0.2249    0.0000 H       1  UNL1        0.0265
     87 H          23.1831    1.2250    0.0000 H       1  UNL1        0.0265
     88 H          22.3861    1.2250    0.0000 H       1  UNL1        0.0265
     89 H          38.7716    1.2250    0.0000 H       1  UNL1        0.0265
     90 H          37.9745    1.2250    0.0000 H       1  UNL1        0.0265
     91 H          21.5201   -0.2249    0.0000 H       1  UNL1        0.0265
     92 H          22.3171   -0.2249    0.0000 H       1  UNL1        0.0265
     93 H          38.8406   -0.2249    0.0000 H       1  UNL1        0.0265
     94 H          39.6376   -0.2249    0.0000 H       1  UNL1        0.0265
     95 H          21.4511    1.2250    0.0000 H       1  UNL1        0.0265
     96 H          20.6540    1.2250    0.0000 H       1  UNL1        0.0265
     97 H          40.5036    1.2250    0.0000 H       1  UNL1        0.0265
     98 H          39.7066    1.2250    0.0000 H       1  UNL1        0.0265
     99 H          19.7880   -0.2249    0.0000 H       1  UNL1        0.0265
    100 H          20.5851   -0.2249    0.0000 H       1  UNL1        0.0265
    101 H          40.5726   -0.2249    0.0000 H       1  UNL1        0.0265
    102 H          41.3697   -0.2249    0.0000 H       1  UNL1        0.0265
    103 H          19.7190    1.2250    0.0000 H       1  UNL1        0.0265
    104 H          18.9220    1.2250    0.0000 H       1  UNL1        0.0265
    105 H          42.2357    1.2250    0.0000 H       1  UNL1        0.0265
    106 H          41.4386    1.2250    0.0000 H       1  UNL1        0.0265
    107 H           9.3267    1.2250    0.0000 H       1  UNL1        0.0265
    108 H           8.5297    1.2250    0.0000 H       1  UNL1        0.0265
    109 H           7.6636   -0.2249    0.0000 H       1  UNL1        0.0265
    110 H           8.4607   -0.2249    0.0000 H       1  UNL1        0.0265
    111 H           9.3957   -0.2249    0.0000 H       1  UNL1        0.0265
    112 H          10.1928   -0.2249    0.0000 H       1  UNL1        0.0265
    113 H           7.5947    1.2250    0.0000 H       1  UNL1        0.0265
    114 H           6.7976    1.2250    0.0000 H       1  UNL1        0.0265
    115 H          11.0588    1.2250    0.0000 H       1  UNL1        0.0265
    116 H          10.2617    1.2250    0.0000 H       1  UNL1        0.0265
    117 H           5.9316   -0.2249    0.0000 H       1  UNL1        0.0265
    118 H           6.7287   -0.2249    0.0000 H       1  UNL1        0.0265
    119 H          18.0560   -0.2249    0.0000 H       1  UNL1        0.0266
    120 H          18.8530   -0.2249    0.0000 H       1  UNL1        0.0266
    121 H          42.3047   -0.2249    0.0000 H       1  UNL1        0.0265
    122 H          43.1017   -0.2249    0.0000 H       1  UNL1        0.0265
    123 H          11.1278   -0.2249    0.0000 H       1  UNL1        0.0265
    124 H          11.9248   -0.2249    0.0000 H       1  UNL1        0.0265
    125 H           5.8626    1.2250    0.0000 H       1  UNL1        0.0265
    126 H           5.0656    1.2250    0.0000 H       1  UNL1        0.0265
    127 H          12.7908    1.2250    0.0000 H       1  UNL1        0.0265
    128 H          11.9938    1.2250    0.0000 H       1  UNL1        0.0265
    129 H           4.1996   -0.2249    0.0000 H       1  UNL1        0.0265
    130 H           4.9966   -0.2249    0.0000 H       1  UNL1        0.0265
    131 H          17.9870    1.2250    0.0000 H       1  UNL1        0.0298
    132 H          17.1899    1.2250    0.0000 H       1  UNL1        0.0298
    133 H          43.9677    1.2250    0.0000 H       1  UNL1        0.0265
    134 H          43.1707    1.2250    0.0000 H       1  UNL1        0.0265
    135 H          12.8598   -0.2249    0.0000 H       1  UNL1        0.0270
    136 H          13.6569   -0.2249    0.0000 H       1  UNL1        0.0270
    137 H           4.1306    1.2250    0.0000 H       1  UNL1        0.0265
    138 H           3.3335    1.2250    0.0000 H       1  UNL1        0.0265
    139 H          16.3239   -0.2249    0.0000 H       1  UNL1        0.0697
    140 H          17.1210   -0.2249    0.0000 H       1  UNL1        0.0697
    141 H          44.0367   -0.2249    0.0000 H       1  UNL1        0.0263
    142 H          44.8338   -0.2249    0.0000 H       1  UNL1        0.0263
    143 H          14.5229    1.2250    0.0000 H       1  UNL1        0.0377
    144 H          13.7258    1.2250    0.0000 H       1  UNL1        0.0377
    145 H           2.4675   -0.2249    0.0000 H       1  UNL1        0.0263
    146 H           3.2646   -0.2249    0.0000 H       1  UNL1        0.0263
    147 H          45.6113    0.2131    0.0000 H       1  UNL1        0.0230
    148 H          45.8382    1.0600    0.0000 H       1  UNL1        0.0230
    149 H          44.9913    1.2869    0.0000 H       1  UNL1        0.0230
    150 H           2.3100    1.2869    0.0000 H       1  UNL1        0.0230
    151 H           1.4631    1.0600    0.0000 H       1  UNL1        0.0230
    152 H           1.6900    0.2131    0.0000 H       1  UNL1        0.0230
@<TRIPOS>BOND
     1     1    46    1
     2     1    50    1
     3     2    50    2
     4     3     4    1
     5     3     5    1
     6     3    53    1
     7     3    54    1
     8     4     6    1
     9     4    55    1
    10     4    56    1
    11     5     7    1
    12     5    57    1
    13     5    58    1
    14     6     8    1
    15     6    59    1
    16     6    60    1
    17     7     9    1
    18     7    61    1
    19     7    62    1
    20     8    10    1
    21     8    63    1
    22     8    64    1
    23     9    11    1
    24     9    65    1
    25     9    66    1
    26    10    12    1
    27    10    67    1
    28    10    68    1
    29    11    13    1
    30    11    69    1
    31    11    70    1
    32    12    14    1
    33    12    71    1
    34    12    72    1
    35    13    15    1
    36    13    73    1
    37    13    74    1
    38    14    17    1
    39    14    75    1
    40    14    76    1
    41    15    16    1
    42    15    77    1
    43    15    78    1
    44    16    18    1
    45    16    81    1
    46    16    82    1
    47    17    19    1
    48    17    79    1
    49    17    80    1
    50    18    20    1
    51    18    83    1
    52    18    84    1
    53    19    21    1
    54    19    85    1
    55    19    86    1
    56    20    22    1
    57    20    87    1
    58    20    88    1
    59    21    23    1
    60    21    89    1
    61    21    90    1
    62    22    24    1
    63    22    91    1
    64    22    92    1
    65    23    25    1
    66    23    93    1
    67    23    94    1
    68    24    26    1
    69    24    95    1
    70    24    96    1
    71    25    27    1
    72    25    97    1
    73    25    98    1
    74    26    28    1
    75    26    99    1
    76    26   100    1
    77    27    29    1
    78    27   101    1
    79    27   102    1
    80    28    36    1
    81    28   103    1
    82    28   104    1
    83    29    37    1
    84    29   105    1
    85    29   106    1
    86    30    31    1
    87    30    32    1
    88    30   107    1
    89    30   108    1
    90    31    33    1
    91    31   109    1
    92    31   110    1
    93    32    34    1
    94    32   111    1
    95    32   112    1
    96    33    35    1
    97    33   113    1
    98    33   114    1
    99    34    38    1
   100    34   115    1
   101    34   116    1
   102    35    39    1
   103    35   117    1
   104    35   118    1
   105    36    42    1
   106    36   119    1
   107    36   120    1
   108    37    43    1
   109    37   121    1
   110    37   122    1
   111    38    40    1
   112    38   123    1
   113    38   124    1
   114    39    41    1
   115    39   125    1
   116    39   126    1
   117    40    44    1
   118    40   127    1
   119    40   128    1
   120    41    45    1
   121    41   129    1
   122    41   130    1
   123    42    46    1
   124    42   131    1
   125    42   132    1
   126    43    47    1
   127    43   133    1
   128    43   134    1
   129    44    48    1
   130    44   135    1
   131    44   136    1
   132    45    49    1
   133    45   137    1
   134    45   138    1
   135    46   139    1
   136    46   140    1
   137    47    51    1
   138    47   141    1
   139    47   142    1
   140    48    50    1
   141    48   143    1
   142    48   144    1
   143    49    52    1
   144    49   145    1
   145    49   146    1
   146    51   147    1
   147    51   148    1
   148    51   149    1
   149    52   150    1
   150    52   151    1
   151    52   152    1
