@<TRIPOS>MOLECULE
IMPHY011517
 49 53 0 0 0
SMALL
GASTEIGER

@<TRIPOS>ATOM
      1 O           3.2118   -3.7242    0.0000 O.3     1  UNL1       -0.4838
      2 O           4.7340   -0.6444    0.0000 O.2     1  UNL1       -0.4550
      3 O           5.6521    1.9040    0.0000 O.3     1  UNL1       -0.4836
      4 O           2.1360    0.8556    0.0000 O.2     1  UNL1       -0.2864
      5 O           2.0116    3.9925    0.0000 O.3     1  UNL1       -0.4914
      6 O           3.8149    5.0523    0.0000 O.3     1  UNL1       -0.4913
      7 C           4.6571   -2.8748    0.0000 C.3     1  UNL1        0.0204
      8 C           3.8841   -2.1859    0.0000 C.ar    1  UNL1        0.0410
      9 C           4.2424   -3.8236    0.0000 C.3     1  UNL1        0.1249
     10 C           3.8680   -1.1444    0.0000 C.ar    1  UNL1        0.1457
     11 C           2.9860   -2.7137    0.0000 C.ar    1  UNL1        0.1282
     12 C           3.0020   -0.6444    0.0000 C.ar    1  UNL1        0.0651
     13 C           3.8680    0.8556    0.0000 C.ar    1  UNL1        0.0745
     14 C           4.7340    0.3556    0.0000 C.ar    1  UNL1        0.1543
     15 C           3.0020    0.3556    0.0000 C.ar    1  UNL1        0.2007
     16 C           4.7491   -4.6858    0.0000 C.2     1  UNL1       -0.0395
     17 C           2.0840   -2.1929    0.0000 C.ar    1  UNL1       -0.0187
     18 C           2.0920   -1.1513    0.0000 C.ar    1  UNL1       -0.0439
     19 C           3.8520    1.8971    0.0000 C.ar    1  UNL1        0.0345
     20 C           5.6440    0.8624    0.0000 C.3     1  UNL1        0.1477
     21 C           4.7500    2.4248    0.0000 C.ar    1  UNL1        0.1327
     22 C           4.2558   -5.5556    0.0000 C.3     1  UNL1       -0.0406
     23 C           2.9000    2.4177    0.0000 C.ar    1  UNL1       -0.0049
     24 C           4.7584    3.5098    0.0000 C.ar    1  UNL1        0.0260
     25 C           5.7491   -4.6781    0.0000 C.2     1  UNL1       -0.0962
     26 C           2.8833    3.5026    0.0000 C.ar    1  UNL1        0.1623
     27 C           3.8187    4.0523    0.0000 C.ar    1  UNL1        0.1650
     28 C           2.0000    4.9925    0.0000 C.3     1  UNL1        0.0790
     29 C           4.6790    5.5556    0.0000 C.3     1  UNL1        0.0790
     30 H           5.1960   -3.1815    0.0000 H       1  UNL1        0.0355
     31 H           5.0187   -2.3712    0.0000 H       1  UNL1        0.0355
     32 H           3.9090   -4.3464    0.0000 H       1  UNL1        0.0784
     33 H           1.5458   -2.5008    0.0000 H       1  UNL1        0.0654
     34 H           1.5587   -0.8351    0.0000 H       1  UNL1        0.0627
     35 H           5.8486    0.2771    0.0000 H       1  UNL1        0.0779
     36 H           6.2557    0.9638    0.0000 H       1  UNL1        0.0779
     37 H           2.3692    2.0974    0.0000 H       1  UNL1        0.0663
     38 H           3.7165   -5.2498    0.0000 H       1  UNL1        0.0275
     39 H           3.9499   -6.0950    0.0000 H       1  UNL1        0.0275
     40 H           4.7951   -5.8615    0.0000 H       1  UNL1        0.0275
     41 H           5.2965    3.8177    0.0000 H       1  UNL1        0.0692
     42 H           6.0632   -5.2126    0.0000 H       1  UNL1        0.0535
     43 H           6.0549   -4.1388    0.0000 H       1  UNL1        0.0535
     44 H           2.6200    4.9996    0.0000 H       1  UNL1        0.0660
     45 H           1.9928    5.6124    0.0000 H       1  UNL1        0.0660
     46 H           1.3800    4.9853    0.0000 H       1  UNL1        0.0660
     47 H           4.9910    5.0199    0.0000 H       1  UNL1        0.0660
     48 H           5.2147    5.8677    0.0000 H       1  UNL1        0.0660
     49 H           4.3669    6.0914    0.0000 H       1  UNL1        0.0660
@<TRIPOS>BOND
     1     1     9    1
     2     1    11    1
     3     2    10   ar
     4     2    14   ar
     5     3    20    1
     6     3    21    1
     7     4    15    2
     8     5    26    1
     9     5    28    1
    10     6    27    1
    11     6    29    1
    12     7     8    1
    13     7     9    1
    14     7    30    1
    15     7    31    1
    16     8    10   ar
    17     8    11   ar
    18     9    16    1
    19     9    32    1
    20    10    12   ar
    21    11    17   ar
    22    12    15   ar
    23    12    18   ar
    24    13    14   ar
    25    13    15   ar
    26    13    19    1
    27    14    20    1
    28    16    22    1
    29    16    25    2
    30    17    18   ar
    31    17    33    1
    32    18    34    1
    33    19    21   ar
    34    19    23   ar
    35    20    35    1
    36    20    36    1
    37    21    24   ar
    38    22    38    1
    39    22    39    1
    40    22    40    1
    41    23    26   ar
    42    23    37    1
    43    24    27   ar
    44    24    41    1
    45    25    42    1
    46    25    43    1
    47    26    27   ar
    48    28    44    1
    49    28    45    1
    50    28    46    1
    51    29    47    1
    52    29    48    1
    53    29    49    1
