@<TRIPOS>MOLECULE
IMPHY001352
 46 50 0 0 0
SMALL
GASTEIGER

@<TRIPOS>ATOM
      1 O           9.0403    1.4497    0.0000 O.3     1  UNL1       -0.4520
      2 O           9.0403    3.0591    0.0000 O.3     1  UNL1       -0.4526
      3 O           2.8816    1.8312    0.0000 O.3     1  UNL1       -0.4535
      4 O           3.6992    0.3042    0.0000 O.2     1  UNL1       -0.2262
      5 O           9.0845   -1.8826    0.0000 O.3     1  UNL1       -0.4914
      6 O           7.2812   -2.9423    0.0000 O.3     1  UNL1       -0.5033
      7 N           4.6127    1.7758    0.0000 N.am    1  UNL1       -0.2597
      8 C           5.4520    1.2475    0.0000 C.3     1  UNL1        0.0592
      9 C           6.3620    1.7544    0.0000 C.ar    1  UNL1       -0.0119
     10 C           5.4440    0.2059    0.0000 C.3     1  UNL1       -0.0040
     11 C           6.3620    2.7544    0.0000 C.ar    1  UNL1       -0.0367
     12 C           7.2281    1.2544    0.0000 C.ar    1  UNL1        0.0332
     13 C           5.5038    3.2513    0.0000 C.3     1  UNL1       -0.0112
     14 C           4.6384    2.7672    0.0000 C.3     1  UNL1        0.0224
     15 C           6.3461   -0.3149    0.0000 C.ar    1  UNL1       -0.0338
     16 C           7.2441    0.2129    0.0000 C.ar    1  UNL1       -0.0070
     17 C           8.0941    1.7544    0.0000 C.ar    1  UNL1        0.1742
     18 C           7.2281    3.2544    0.0000 C.ar    1  UNL1       -0.0126
     19 C           8.0941    2.7544    0.0000 C.ar    1  UNL1        0.1671
     20 C           6.3377   -1.3998    0.0000 C.ar    1  UNL1       -0.0127
     21 C           8.1961   -0.3077    0.0000 C.ar    1  UNL1       -0.0082
     22 C           3.7312    1.3037    0.0000 C.2     1  UNL1        0.4031
     23 C           8.2128   -1.3926    0.0000 C.ar    1  UNL1        0.1619
     24 C           7.2774   -1.9423    0.0000 C.ar    1  UNL1        0.1587
     25 C           9.6239    2.2544    0.0000 C.3     1  UNL1        0.2333
     26 C           2.0000    1.3591    0.0000 C.3     1  UNL1        0.0833
     27 C           9.0961   -2.8825    0.0000 C.3     1  UNL1        0.0790
     28 H           4.7064    0.8395    0.0000 H       1  UNL1        0.0555
     29 H           4.8340    0.3167    0.0000 H       1  UNL1        0.0335
     30 H           5.2305   -0.3761    0.0000 H       1  UNL1        0.0335
     31 H           5.9049    3.7241    0.0000 H       1  UNL1        0.0329
     32 H           5.1098    3.7300    0.0000 H       1  UNL1        0.0329
     33 H           4.4366    3.3534    0.0000 H       1  UNL1        0.0469
     34 H           4.0256    2.6728    0.0000 H       1  UNL1        0.0469
     35 H           7.2281    3.8744    0.0000 H       1  UNL1        0.0658
     36 H           5.7996   -1.7078    0.0000 H       1  UNL1        0.0658
     37 H           8.7269    0.0126    0.0000 H       1  UNL1        0.0661
     38 H          10.0848    1.8397    0.0000 H       1  UNL1        0.1166
     39 H          10.0848    2.6691    0.0000 H       1  UNL1        0.1166
     40 H           6.7455   -3.2544    0.0000 H       1  UNL1        0.2923
     41 H           1.7073    1.9057    0.0000 H       1  UNL1        0.0661
     42 H           1.4534    1.0664    0.0000 H       1  UNL1        0.0661
     43 H           2.2927    0.8125    0.0000 H       1  UNL1        0.0661
     44 H           8.4762   -2.8897    0.0000 H       1  UNL1        0.0660
     45 H           9.1033   -3.5024    0.0000 H       1  UNL1        0.0660
     46 H           9.7161   -2.8753    0.0000 H       1  UNL1        0.0660
@<TRIPOS>BOND
     1     1    17    1
     2     1    25    1
     3     2    19    1
     4     2    25    1
     5     3    22    1
     6     3    26    1
     7     4    22    2
     8     5    23    1
     9     5    27    1
    10     6    24    1
    11     6    40    1
    12     7     8    1
    13     7    14    1
    14     7    22   am
    15     8     9    1
    16     8    10    1
    17     8    28    1
    18     9    11   ar
    19     9    12   ar
    20    10    15    1
    21    10    29    1
    22    10    30    1
    23    11    13    1
    24    11    18   ar
    25    12    16    1
    26    12    17   ar
    27    13    14    1
    28    13    31    1
    29    13    32    1
    30    14    33    1
    31    14    34    1
    32    15    16   ar
    33    15    20   ar
    34    16    21   ar
    35    17    19   ar
    36    18    19   ar
    37    18    35    1
    38    20    24   ar
    39    20    36    1
    40    21    23   ar
    41    21    37    1
    42    23    24   ar
    43    25    38    1
    44    25    39    1
    45    26    41    1
    46    26    42    1
    47    26    43    1
    48    27    44    1
    49    27    45    1
    50    27    46    1
