@<TRIPOS>MOLECULE
IMPHY005204
 61 63 0 0 0
SMALL
GASTEIGER

@<TRIPOS>ATOM
      1 O           3.9057   -0.6472    0.0000 O.3     1  UNL1       -0.3877
      2 O           3.7320    3.3376    0.0000 O.3     1  UNL1       -0.4612
      3 O           2.0000    3.3376    0.0000 O.2     1  UNL1       -0.2512
      4 O           2.0296   -3.3431    0.0000 O.3     1  UNL1       -0.4571
      5 O           3.0002   -4.8376    0.0000 O.2     1  UNL1       -0.2456
      6 C           4.5981    0.8376    0.0000 C.3     1  UNL1        0.0036
      7 C           4.5981    1.8376    0.0000 C.3     1  UNL1        0.0093
      8 C           3.7320    0.3376    0.0000 C.3     1  UNL1        0.0748
      9 C           5.4920    2.3723    0.0000 C.3     1  UNL1       -0.0281
     10 C           3.7320    2.3376    0.0000 C.3     1  UNL1        0.1073
     11 C           2.8660    0.8376    0.0000 C.3     1  UNL1       -0.0111
     12 C           5.4920    0.3030    0.0000 C.3     1  UNL1       -0.0446
     13 C           2.8660    1.8376    0.0000 C.3     1  UNL1       -0.0102
     14 C           6.3981    1.8584    0.0000 C.3     1  UNL1       -0.0475
     15 C           6.3981    0.8168    0.0000 C.3     1  UNL1       -0.0520
     16 C           4.9402   -0.1020    0.0000 C.3     1  UNL1       -0.0565
     17 C           3.2320   -0.5284    0.0000 C.3     1  UNL1       -0.0194
     18 C           5.9820    3.2440    0.0000 C.3     1  UNL1       -0.0594
     19 C           4.9820    3.2325    0.0000 C.3     1  UNL1       -0.0594
     20 C           2.0000    0.3376    0.0000 C.3     1  UNL1       -0.0597
     21 C           3.7320   -1.3944    0.0000 C.3     1  UNL1       -0.0254
     22 C           3.2320   -2.2604    0.0000 C.2     1  UNL1       -0.0258
     23 C           2.8660    3.8376    0.0000 C.2     1  UNL1        0.3042
     24 C           2.2375   -2.3650    0.0000 C.3     1  UNL1        0.1144
     25 C           3.6388   -3.1740    0.0000 C.2     1  UNL1        0.0249
     26 C           2.8660    4.8376    0.0000 C.3     1  UNL1        0.0332
     27 C           2.8956   -3.8431    0.0000 C.2     1  UNL1        0.3323
     28 H           4.5915    2.6876    0.0000 H       1  UNL1        0.0348
     29 H           3.1951    2.6476    0.0000 H       1  UNL1        0.0737
     30 H           2.8660    0.2176    0.0000 H       1  UNL1        0.0327
     31 H           5.0874   -0.1668    0.0000 H       1  UNL1        0.0272
     32 H           5.8856   -0.1760    0.0000 H       1  UNL1        0.0272
     33 H           2.6540    2.4202    0.0000 H       1  UNL1        0.0304
     34 H           2.2554    1.7300    0.0000 H       1  UNL1        0.0304
     35 H           7.0089    1.7524    0.0000 H       1  UNL1        0.0271
     36 H           6.6071    2.4421    0.0000 H       1  UNL1        0.0271
     37 H           6.6071    0.2331    0.0000 H       1  UNL1        0.0266
     38 H           7.0089    0.9229    0.0000 H       1  UNL1        0.0266
     39 H           4.3576   -0.3141    0.0000 H       1  UNL1        0.0236
     40 H           5.1523   -0.6846    0.0000 H       1  UNL1        0.0236
     41 H           5.5228    0.1101    0.0000 H       1  UNL1        0.0236
     42 H           2.7571   -0.1299    0.0000 H       1  UNL1        0.0296
     43 H           2.7571   -0.9269    0.0000 H       1  UNL1        0.0296
     44 H           5.5154    3.5487    0.0000 H       1  UNL1        0.0235
     45 H           4.6658    3.7658    0.0000 H       1  UNL1        0.0235
     46 H           4.4487    2.9163    0.0000 H       1  UNL1        0.0235
     47 H           6.5225    2.9403    0.0000 H       1  UNL1        0.0235
     48 H           6.2857    3.7845    0.0000 H       1  UNL1        0.0235
     49 H           5.4415    3.5478    0.0000 H       1  UNL1        0.0235
     50 H           1.6900    0.8746    0.0000 H       1  UNL1        0.0233
     51 H           1.4631    0.0276    0.0000 H       1  UNL1        0.0233
     52 H           2.3100   -0.1993    0.0000 H       1  UNL1        0.0233
     53 H           4.4883   -0.8592    0.0000 H       1  UNL1        0.2102
     54 H           4.2070   -1.7929    0.0000 H       1  UNL1        0.0312
     55 H           4.2070   -0.9959    0.0000 H       1  UNL1        0.0312
     56 H           2.2375   -1.7450    0.0000 H       1  UNL1        0.0746
     57 H           1.6209   -2.3002    0.0000 H       1  UNL1        0.0746
     58 H           4.2452   -3.3029    0.0000 H       1  UNL1        0.0689
     59 H           3.4860    4.8376    0.0000 H       1  UNL1        0.0342
     60 H           2.8660    5.4576    0.0000 H       1  UNL1        0.0342
     61 H           2.2460    4.8376    0.0000 H       1  UNL1        0.0342
@<TRIPOS>BOND
     1     8     1    1
     2     1    53    1
     3    10     2    1
     4     2    23    1
     5     3    23    2
     6     4    24    1
     7     4    27    1
     8     5    27    2
     9     6     7    1
    10     6     8    1
    11     6    12    1
    12     6    16    1
    13     7     9    1
    14     7    10    1
    15     7    28    1
    16     8    11    1
    17     8    17    1
    18     9    14    1
    19     9    18    1
    20     9    19    1
    21    10    13    1
    22    10    29    1
    23    11    13    1
    24    11    20    1
    25    11    30    1
    26    12    15    1
    27    12    31    1
    28    12    32    1
    29    13    33    1
    30    13    34    1
    31    14    15    1
    32    14    35    1
    33    14    36    1
    34    15    37    1
    35    15    38    1
    36    16    39    1
    37    16    40    1
    38    16    41    1
    39    17    21    1
    40    17    42    1
    41    17    43    1
    42    18    47    1
    43    18    48    1
    44    18    49    1
    45    19    44    1
    46    19    45    1
    47    19    46    1
    48    20    50    1
    49    20    51    1
    50    20    52    1
    51    21    22    1
    52    21    54    1
    53    21    55    1
    54    22    24    1
    55    22    25    2
    56    23    26    1
    57    24    56    1
    58    24    57    1
    59    25    27    1
    60    25    58    1
    61    26    59    1
    62    26    60    1
    63    26    61    1
