@<TRIPOS>MOLECULE
IMPHY006054
 30 32 0 0 0
SMALL
GASTEIGER

@<TRIPOS>ATOM
      1 O           6.4260    1.0347    0.0000 O.2     1  UNL1       -0.4776
      2 O           4.6660    2.0000    0.0000 O.2     1  UNL1       -0.2833
      3 O           4.6660   -2.0000    0.0000 O.2     1  UNL1       -0.2865
      4 C           7.3321    0.5208    0.0000 C.3     1  UNL1        0.1237
      5 C           5.5321    0.5000    0.0000 C.2     1  UNL1        0.1795
      6 C           5.5321   -0.5000    0.0000 C.2     1  UNL1        0.0676
      7 C           7.3321   -0.5208    0.0000 C.2     1  UNL1       -0.0408
      8 C           8.3321    0.5247    0.0000 C.3     1  UNL1       -0.0215
      9 C           7.8287    1.3888    0.0000 C.3     1  UNL1       -0.0215
     10 C           6.4260   -1.0347    0.0000 C.2     1  UNL1       -0.0475
     11 C           3.8000    0.5000    0.0000 C.ar    1  UNL1        0.0362
     12 C           3.8000   -0.5000    0.0000 C.ar    1  UNL1        0.0333
     13 C           4.6660    1.0000    0.0000 C.2     1  UNL1        0.2287
     14 C           4.6660   -1.0000    0.0000 C.2     1  UNL1        0.1974
     15 C           2.9061    1.0347    0.0000 C.ar    1  UNL1       -0.0501
     16 C           2.9061   -1.0347    0.0000 C.ar    1  UNL1       -0.0502
     17 C           2.0000    0.5208    0.0000 C.ar    1  UNL1       -0.0610
     18 C           2.0000   -0.5208    0.0000 C.ar    1  UNL1       -0.0610
     19 H           7.8678   -0.8329    0.0000 H       1  UNL1        0.0611
     20 H           8.3344   -0.0953    0.0000 H       1  UNL1        0.0271
     21 H           8.9521    0.5271    0.0000 H       1  UNL1        0.0271
     22 H           8.3297    1.1447    0.0000 H       1  UNL1        0.0271
     23 H           8.3668    1.0808    0.0000 H       1  UNL1        0.0271
     24 H           8.1366    1.9269    0.0000 H       1  UNL1        0.0271
     25 H           7.2906    1.6967    0.0000 H       1  UNL1        0.0271
     26 H           6.4188   -1.6546    0.0000 H       1  UNL1        0.0624
     27 H           2.9132    1.6546    0.0000 H       1  UNL1        0.0625
     28 H           2.9132   -1.6546    0.0000 H       1  UNL1        0.0625
     29 H           1.4643    0.8329    0.0000 H       1  UNL1        0.0618
     30 H           1.4643   -0.8329    0.0000 H       1  UNL1        0.0618
@<TRIPOS>BOND
     1     1     4    1
     2     1     5    1
     3     2    13    2
     4     3    14    2
     5     4     7    1
     6     4     8    1
     7     4     9    1
     8     5     6    2
     9     5    13    1
    10     6    10    1
    11     6    14    1
    12     7    10    2
    13     7    19    1
    14     8    20    1
    15     8    21    1
    16     8    22    1
    17     9    23    1
    18     9    24    1
    19     9    25    1
    20    10    26    1
    21    11    12   ar
    22    11    13    1
    23    11    15   ar
    24    12    14    1
    25    12    16   ar
    26    15    17   ar
    27    15    27    1
    28    16    18   ar
    29    16    28    1
    30    17    18   ar
    31    17    29    1
    32    18    30    1
