@<TRIPOS>MOLECULE
IMPHY011868
 43 46 0 0 0
SMALL
GASTEIGER

@<TRIPOS>ATOM
      1 N           7.8349   -0.0363    0.0000 N.3     1  UNL1       -0.2988
      2 N           3.7360   -0.1774    0.0000 N.3     1  UNL1       -0.2988
      3 C           5.7861    0.1290    0.0000 C.3     1  UNL1       -0.0123
      4 C           6.0449    1.0950    0.0000 C.3     1  UNL1       -0.0123
      5 C           7.0578   -0.6656    0.0000 C.3     1  UNL1        0.0144
      6 C           4.0117    0.7838    0.0000 C.3     1  UNL1        0.0144
      7 C           5.3083    2.0776    0.0000 C.3     1  UNL1       -0.0422
      8 C           7.4765    0.8973    0.0000 C.3     1  UNL1        0.0034
      9 C           4.5650   -0.7366    0.0000 C.3     1  UNL1        0.0034
     10 C           7.2048   -1.6968    0.0000 C.3     1  UNL1       -0.0370
     11 C           3.2997    1.5442    0.0000 C.3     1  UNL1       -0.0370
     12 C           8.8130   -0.3945    0.0000 C.3     1  UNL1       -0.0008
     13 C           2.7293   -0.4450    0.0000 C.3     1  UNL1       -0.0008
     14 C           8.1744   -2.0776    0.0000 C.3     1  UNL1       -0.0505
     15 C           2.2871    1.3000    0.0000 C.3     1  UNL1       -0.0505
     16 C           8.9839   -1.4220    0.0000 C.3     1  UNL1       -0.0401
     17 C           2.0000    0.2987    0.0000 C.3     1  UNL1       -0.0401
     18 H           5.5661   -0.6920    0.0000 H       1  UNL1        0.0328
     19 H           6.2649    1.9160    0.0000 H       1  UNL1        0.0328
     20 H           6.3972   -1.2005    0.0000 H       1  UNL1        0.0466
     21 H           4.2460    1.6009    0.0000 H       1  UNL1        0.0466
     22 H           5.6261    2.6099    0.0000 H       1  UNL1        0.0272
     23 H           4.6951    2.1695    0.0000 H       1  UNL1        0.0272
     24 H           8.0844    1.0196    0.0000 H       1  UNL1        0.0430
     25 H           7.4575    1.5170    0.0000 H       1  UNL1        0.0430
     26 H           4.1592   -1.2053    0.0000 H       1  UNL1        0.0430
     27 H           4.9817   -1.1958    0.0000 H       1  UNL1        0.0430
     28 H           6.5851   -1.6780    0.0000 H       1  UNL1        0.0280
     29 H           7.0803   -2.3042    0.0000 H       1  UNL1        0.0280
     30 H           3.8181    1.8842    0.0000 H       1  UNL1        0.0280
     31 H           3.0534    2.1131    0.0000 H       1  UNL1        0.0280
     32 H           9.4330   -0.3990    0.0000 H       1  UNL1        0.0427
     33 H           8.9235    0.2155    0.0000 H       1  UNL1        0.0427
     34 H           2.2189   -0.7969    0.0000 H       1  UNL1        0.0427
     35 H           2.9888   -1.0081    0.0000 H       1  UNL1        0.0427
     36 H           7.8523   -2.6074    0.0000 H       1  UNL1        0.0266
     37 H           8.6412   -2.4855    0.0000 H       1  UNL1        0.0266
     38 H           2.2470    1.9187    0.0000 H       1  UNL1        0.0266
     39 H           1.6707    1.3664    0.0000 H       1  UNL1        0.0266
     40 H           9.2858   -1.9635    0.0000 H       1  UNL1        0.0278
     41 H           9.5690   -1.2172    0.0000 H       1  UNL1        0.0278
     42 H           1.4420    0.5691    0.0000 H       1  UNL1        0.0278
     43 H           1.6382   -0.2048    0.0000 H       1  UNL1        0.0278
@<TRIPOS>BOND
     1     1     5    1
     2     1     8    1
     3     1    12    1
     4     2     6    1
     5     2     9    1
     6     2    13    1
     7     3     5    1
     8     3     7    1
     9     3     9    1
    10     3    18    1
    11     4     6    1
    12     4     7    1
    13     4     8    1
    14     4    19    1
    15     5    10    1
    16     5    20    1
    17     6    11    1
    18     6    21    1
    19     7    22    1
    20     7    23    1
    21     8    24    1
    22     8    25    1
    23     9    26    1
    24     9    27    1
    25    10    14    1
    26    10    28    1
    27    10    29    1
    28    11    15    1
    29    11    30    1
    30    11    31    1
    31    12    16    1
    32    12    32    1
    33    12    33    1
    34    13    17    1
    35    13    34    1
    36    13    35    1
    37    14    16    1
    38    14    36    1
    39    14    37    1
    40    15    17    1
    41    15    38    1
    42    15    39    1
    43    16    40    1
    44    16    41    1
    45    17    42    1
    46    17    43    1
