@<TRIPOS>MOLECULE
IMPHY005784
 45 45 0 0 0
SMALL
GASTEIGER

@<TRIPOS>ATOM
      1 O           4.5981   -1.7500    0.0000 O.3     1  UNL1       -0.4646
      2 O           3.7320   -0.2500    0.0000 O.2     1  UNL1       -0.2509
      3 C           4.5981    1.2500    0.0000 C.3     1  UNL1       -0.0531
      4 C           5.4641    1.7500    0.0000 C.3     1  UNL1       -0.0531
      5 C           3.7320    1.7500    0.0000 C.3     1  UNL1       -0.0531
      6 C           6.3301    1.2500    0.0000 C.3     1  UNL1       -0.0531
      7 C           2.8660    1.2500    0.0000 C.3     1  UNL1       -0.0531
      8 C           6.3301    0.2500    0.0000 C.3     1  UNL1       -0.0531
      9 C           2.8660    0.2500    0.0000 C.3     1  UNL1       -0.0530
     10 C           7.1962   -0.2500    0.0000 C.3     1  UNL1       -0.0530
     11 C           2.0000   -0.2500    0.0000 C.3     1  UNL1       -0.0526
     12 C           7.1962   -1.2500    0.0000 C.3     1  UNL1       -0.0500
     13 C           2.0000   -1.2500    0.0000 C.3     1  UNL1       -0.0430
     14 C           6.3301   -1.7500    0.0000 C.3     1  UNL1       -0.0185
     15 C           2.8660   -1.7500    0.0000 C.3     1  UNL1        0.0449
     16 C           5.4641   -1.2500    0.0000 C.3     1  UNL1        0.0925
     17 C           3.7320   -1.2500    0.0000 C.2     1  UNL1        0.3071
     18 H           4.1996    0.7751    0.0000 H       1  UNL1        0.0265
     19 H           4.9966    0.7751    0.0000 H       1  UNL1        0.0265
     20 H           5.8626    2.2250    0.0000 H       1  UNL1        0.0265
     21 H           5.0656    2.2250    0.0000 H       1  UNL1        0.0265
     22 H           4.1306    2.2250    0.0000 H       1  UNL1        0.0265
     23 H           3.3335    2.2250    0.0000 H       1  UNL1        0.0265
     24 H           6.9407    1.1423    0.0000 H       1  UNL1        0.0265
     25 H           6.5422    1.8326    0.0000 H       1  UNL1        0.0265
     26 H           2.6540    1.8326    0.0000 H       1  UNL1        0.0265
     27 H           2.2554    1.1423    0.0000 H       1  UNL1        0.0265
     28 H           5.7196    0.3577    0.0000 H       1  UNL1        0.0265
     29 H           6.1181   -0.3326    0.0000 H       1  UNL1        0.0265
     30 H           3.0781   -0.3326    0.0000 H       1  UNL1        0.0265
     31 H           3.4766    0.3577    0.0000 H       1  UNL1        0.0265
     32 H           7.8067   -0.3577    0.0000 H       1  UNL1        0.0265
     33 H           7.4082    0.3326    0.0000 H       1  UNL1        0.0265
     34 H           1.7880    0.3326    0.0000 H       1  UNL1        0.0265
     35 H           1.3894   -0.3577    0.0000 H       1  UNL1        0.0265
     36 H           7.4082   -1.8326    0.0000 H       1  UNL1        0.0266
     37 H           7.8067   -1.1423    0.0000 H       1  UNL1        0.0266
     38 H           1.3894   -1.1423    0.0000 H       1  UNL1        0.0270
     39 H           1.7880   -1.8326    0.0000 H       1  UNL1        0.0270
     40 H           5.9316   -2.2250    0.0000 H       1  UNL1        0.0298
     41 H           6.7287   -2.2250    0.0000 H       1  UNL1        0.0298
     42 H           2.4675   -2.2250    0.0000 H       1  UNL1        0.0377
     43 H           3.2646   -2.2250    0.0000 H       1  UNL1        0.0377
     44 H           5.8626   -0.7751    0.0000 H       1  UNL1        0.0697
     45 H           5.0656   -0.7751    0.0000 H       1  UNL1        0.0697
@<TRIPOS>BOND
     1     1    16    1
     2     1    17    1
     3     2    17    2
     4     3     4    1
     5     3     5    1
     6     3    18    1
     7     3    19    1
     8     4     6    1
     9     4    20    1
    10     4    21    1
    11     5     7    1
    12     5    22    1
    13     5    23    1
    14     6     8    1
    15     6    24    1
    16     6    25    1
    17     7     9    1
    18     7    26    1
    19     7    27    1
    20     8    10    1
    21     8    28    1
    22     8    29    1
    23     9    11    1
    24     9    30    1
    25     9    31    1
    26    10    12    1
    27    10    32    1
    28    10    33    1
    29    11    13    1
    30    11    34    1
    31    11    35    1
    32    12    14    1
    33    12    36    1
    34    12    37    1
    35    13    15    1
    36    13    38    1
    37    13    39    1
    38    14    16    1
    39    14    40    1
    40    14    41    1
    41    15    17    1
    42    15    42    1
    43    15    43    1
    44    16    44    1
    45    16    45    1
