@<TRIPOS>MOLECULE
IMPHY016479
 32 33 0 0 0
SMALL
GASTEIGER

@<TRIPOS>ATOM
      1 C           5.3792   -0.3302    0.0000 C.2     1  UNL1       -0.0370
      2 C           5.3742    0.6698    0.0000 C.2     1  UNL1       -0.0187
      3 C           6.3269   -0.6302    0.0000 C.3     1  UNL1       -0.0084
      4 C           4.6005   -0.9575    0.0000 C.2     1  UNL1       -0.0649
      5 C           6.3189    0.9793    0.0000 C.2     1  UNL1       -0.0466
      6 C           3.6244   -0.7399    0.0000 C.3     1  UNL1       -0.0127
      7 C           6.9065    0.1775    0.0000 C.2     1  UNL1       -0.0762
      8 C           3.6155    1.0620    0.0000 C.2     1  UNL1       -0.0507
      9 C           4.5893    1.2894    0.0000 C.2     1  UNL1       -0.0512
     10 C           3.1861    0.1589    0.0000 C.2     1  UNL1       -0.0768
     11 C           2.9881    1.8408    0.0000 C.3     1  UNL1       -0.0308
     12 C           4.8278   -1.9313    0.0000 C.3     1  UNL1       -0.0429
     13 C           6.6248    1.9313    0.0000 C.3     1  UNL1       -0.0394
     14 C           2.0000    1.6868    0.0000 C.3     1  UNL1       -0.0613
     15 H           6.0787   -1.1983    0.0000 H       1  UNL1        0.0356
     16 H           6.8658   -0.9367    0.0000 H       1  UNL1        0.0356
     17 H           3.0207   -0.8809    0.0000 H       1  UNL1        0.0353
     18 H           3.6275   -1.3599    0.0000 H       1  UNL1        0.0353
     19 H           7.5265    0.1806    0.0000 H       1  UNL1        0.0578
     20 H           4.7242    1.8946    0.0000 H       1  UNL1        0.0626
     21 H           2.5661    0.1558    0.0000 H       1  UNL1        0.0578
     22 H           3.5311    2.1400    0.0000 H       1  UNL1        0.0310
     23 H           2.7877    2.4275    0.0000 H       1  UNL1        0.0310
     24 H           4.2241   -2.0723    0.0000 H       1  UNL1        0.0275
     25 H           4.9688   -2.5351    0.0000 H       1  UNL1        0.0275
     26 H           5.4316   -1.7904    0.0000 H       1  UNL1        0.0275
     27 H           7.2151    1.7417    0.0000 H       1  UNL1        0.0278
     28 H           6.8145    2.5216    0.0000 H       1  UNL1        0.0278
     29 H           6.0345    2.1210    0.0000 H       1  UNL1        0.0278
     30 H           1.9045    2.2994    0.0000 H       1  UNL1        0.0233
     31 H           1.3874    1.5913    0.0000 H       1  UNL1        0.0233
     32 H           2.0955    1.0742    0.0000 H       1  UNL1        0.0233
@<TRIPOS>BOND
     1     1     2    1
     2     1     3    1
     3     1     4    2
     4     2     5    1
     5     2     9    2
     6     3     7    1
     7     3    15    1
     8     3    16    1
     9     4     6    1
    10     4    12    1
    11     5     7    2
    12     5    13    1
    13     6    10    1
    14     6    17    1
    15     6    18    1
    16     7    19    1
    17     8     9    1
    18     8    10    2
    19     8    11    1
    20     9    20    1
    21    10    21    1
    22    11    14    1
    23    11    22    1
    24    11    23    1
    25    12    24    1
    26    12    25    1
    27    12    26    1
    28    13    27    1
    29    13    28    1
    30    13    29    1
    31    14    30    1
    32    14    31    1
    33    14    32    1
