@<TRIPOS>MOLECULE
IMPHY002491
 132 139 0 0 0
SMALL
GASTEIGER

@<TRIPOS>ATOM
      1 O           6.8645    2.6250    0.0000 O.3     1  UNL1       -0.3151
      2 O           7.2577    1.6111    0.0000 O.3     1  UNL1       -0.3124
      3 O           8.4880    1.8432    0.0000 O.3     1  UNL1       -0.3124
      4 O           4.4732    1.0285    0.0000 O.3     1  UNL1       -0.4476
      5 O           4.0996    2.5913    0.0000 O.3     1  UNL1       -0.4567
      6 O           5.2513   -0.7380    0.0000 O.3     1  UNL1       -0.4538
      7 O           6.3648   -1.0265    0.0000 O.3     1  UNL1       -0.4543
      8 O           8.0482   -2.1933    0.0000 O.3     1  UNL1       -0.4566
      9 O          10.9345   -0.8918    0.0000 O.3     1  UNL1       -0.4524
     10 O           2.9025   -1.5389    0.0000 O.3     1  UNL1       -0.4679
     11 O           2.8242   -0.5420    0.0000 O.2     1  UNL1       -0.2509
     12 O           3.3412    2.6681    0.0000 O.2     1  UNL1       -0.2511
     13 O          11.9032    0.6350    0.0000 O.2     1  UNL1       -0.2452
     14 O          11.0494    2.2377    0.0000 O.2     1  UNL1       -0.5103
     15 O           3.6390   -0.1052    0.0000 O.2     1  UNL1       -0.2505
     16 O           5.5898    3.4740    0.0000 O.2     1  UNL1       -0.2512
     17 O           7.0982   -2.5956    0.0000 O.2     1  UNL1       -0.2505
     18 O          12.3324   -2.3888    0.0000 O.2     1  UNL1       -0.4706
     19 O           9.6963   -3.3263    0.0000 O.2     1  UNL1       -0.2505
     20 C           6.4636    0.8683    0.0000 C.3     1  UNL1        0.0408
     21 C           6.2411    1.8432    0.0000 C.3     1  UNL1        0.1308
     22 C           7.3645    0.4344    0.0000 C.3     1  UNL1        0.1566
     23 C           5.4592    1.1957    0.0000 C.3     1  UNL1        0.2189
     24 C           4.1296    0.8484    0.0000 C.3     1  UNL1        0.0158
     25 C           8.2655    0.8683    0.0000 C.3     1  UNL1        0.1565
     26 C           5.3046   -0.0805    0.0000 C.3     1  UNL1       -0.0110
     27 C           4.7852    2.1951    0.0000 C.3     1  UNL1       -0.0097
     28 C           4.6092    1.7309    0.0000 C.3     1  UNL1        0.1546
     29 C           5.6166    0.1928    0.0000 C.3     1  UNL1        0.1812
     30 C           9.1351    0.2948    0.0000 C.3     1  UNL1        0.0425
     31 C           7.2707   -0.6030    0.0000 C.3     1  UNL1        0.1727
     32 C           7.8645    2.6250    0.0000 C.3     1  UNL1        0.2845
     33 C           6.6861   -0.1067    0.0000 C.3     1  UNL1       -0.0536
     34 C           9.0653   -0.7445    0.0000 C.3     1  UNL1        0.0597
     35 C           8.1268   -1.1964    0.0000 C.3     1  UNL1        0.1523
     36 C           3.1546    0.6259    0.0000 C.3     1  UNL1       -0.0557
     37 C           4.7237   -0.8945    0.0000 C.3     1  UNL1        0.0490
     38 C          10.1015    0.7881    0.0000 C.2     1  UNL1        0.0806
     39 C           9.9570   -1.3626    0.0000 C.3     1  UNL1        0.1407
     40 C           8.7655    3.0589    0.0000 C.3     1  UNL1        0.0176
     41 C           8.9982   -1.7422    0.0000 C.3     1  UNL1       -0.0516
     42 C           3.7267   -0.9727    0.0000 C.2     1  UNL1        0.3071
     43 C           3.8355    1.7988    0.0000 C.2     1  UNL1        0.3048
     44 C          11.0073    0.1908    0.0000 C.2     1  UNL1        0.3393
     45 C           4.2625   -0.8871    0.0000 C.2     1  UNL1        0.3101
     46 C          10.1570    1.7865    0.0000 C.2     1  UNL1        0.1069
     47 C           4.5898    3.4628    0.0000 C.2     1  UNL1        0.3043
     48 C          10.7811   -1.9290    0.0000 C.ar    1  UNL1        0.0311
     49 C           6.2785   -2.0227    0.0000 C.2     1  UNL1        0.3101
     50 C           8.8723   -2.7598    0.0000 C.2     1  UNL1        0.3101
     51 C           2.8496    1.6316    0.0000 C.3     1  UNL1        0.0333
     52 C           3.8971   -1.8179    0.0000 C.3     1  UNL1        0.0508
     53 C           9.3200    2.3338    0.0000 C.3     1  UNL1        0.0112
     54 C           4.0802    4.3232    0.0000 C.3     1  UNL1        0.0332
     55 C           5.3726   -2.4462    0.0000 C.3     1  UNL1        0.0508
     56 C          10.8071   -2.9287    0.0000 C.ar    1  UNL1       -0.0172
     57 C          11.7237   -1.5954    0.0000 C.ar    1  UNL1        0.0984
     58 C           8.7937   -3.7567    0.0000 C.3     1  UNL1        0.0508
     59 C           4.5206   -2.5998    0.0000 C.3     1  UNL1       -0.0525
     60 C           3.1152   -2.4414    0.0000 C.3     1  UNL1       -0.0525
     61 C           9.3755    3.3323    0.0000 C.3     1  UNL1       -0.0558
     62 C           9.2645    1.3354    0.0000 C.3     1  UNL1       -0.0558
     63 C           2.0000   -1.1082    0.0000 C.3     1  UNL1        0.0817
     64 C          11.7659   -3.2128    0.0000 C.ar    1  UNL1        0.0921
     65 C           5.2863   -3.4424    0.0000 C.3     1  UNL1       -0.0525
     66 C           4.5529   -1.8733    0.0000 C.3     1  UNL1       -0.0525
     67 C           7.8911   -4.1871    0.0000 C.3     1  UNL1       -0.0525
     68 C           9.6178   -4.3232    0.0000 C.3     1  UNL1       -0.0525
     69 H           5.8215   -0.4228    0.0000 H       1  UNL1        0.0320
     70 H           4.9738    2.7857    0.0000 H       1  UNL1        0.0301
     71 H           4.2096    2.4257    0.0000 H       1  UNL1        0.0301
     72 H           5.2222    1.8240    0.0000 H       1  UNL1        0.0782
     73 H           5.0876    0.5162    0.0000 H       1  UNL1        0.0808
     74 H           9.8447   -0.1731    0.0000 H       1  UNL1        0.0390
     75 H           7.2184   -1.2208    0.0000 H       1  UNL1        0.0802
     76 H           6.0816   -0.2446    0.0000 H       1  UNL1        0.0237
     77 H           6.8240   -0.7111    0.0000 H       1  UNL1        0.0237
     78 H           7.2906    0.0313    0.0000 H       1  UNL1        0.0237
     79 H           7.5666   -1.4622    0.0000 H       1  UNL1        0.0780
     80 H           3.0167    1.2303    0.0000 H       1  UNL1        0.0236
     81 H           2.5502    0.4879    0.0000 H       1  UNL1        0.0236
     82 H           3.2926    0.0214    0.0000 H       1  UNL1        0.0236
     83 H           4.6283   -1.5071    0.0000 H       1  UNL1        0.0381
     84 H           5.2978   -1.1285    0.0000 H       1  UNL1        0.0381
     85 H           9.6048   -1.8728    0.0000 H       1  UNL1        0.0793
     86 H           9.0345    2.5003    0.0000 H       1  UNL1        0.0307
     87 H           9.3241    3.3279    0.0000 H       1  UNL1        0.0307
     88 H           8.4965    3.6175    0.0000 H       1  UNL1        0.0307
     89 H           8.3796   -1.7006    0.0000 H       1  UNL1        0.0238
     90 H           8.9566   -2.3608    0.0000 H       1  UNL1        0.0238
     91 H           9.6168   -1.7838    0.0000 H       1  UNL1        0.0238
     92 H           2.7460    2.2429    0.0000 H       1  UNL1        0.0342
     93 H           2.2384    1.5280    0.0000 H       1  UNL1        0.0342
     94 H           2.9532    1.0204    0.0000 H       1  UNL1        0.0342
     95 H           3.3983   -1.4498    0.0000 H       1  UNL1        0.0408
     96 H           8.7010    2.3682    0.0000 H       1  UNL1        0.0374
     97 H           4.6136    4.6392    0.0000 H       1  UNL1        0.0342
     98 H           3.7642    4.8567    0.0000 H       1  UNL1        0.0342
     99 H           3.5468    4.0072    0.0000 H       1  UNL1        0.0342
    100 H           4.8109   -2.7087    0.0000 H       1  UNL1        0.0408
    101 H          10.3152   -3.3061    0.0000 H       1  UNL1        0.0653
    102 H          11.8999   -1.0009    0.0000 H       1  UNL1        0.1033
    103 H          11.0838    2.8567    0.0000 H       1  UNL1        0.2917
    104 H           8.2828   -3.4055    0.0000 H       1  UNL1        0.0408
    105 H           2.7287   -1.9566    0.0000 H       1  UNL1        0.0237
    106 H           2.6305   -2.8279    0.0000 H       1  UNL1        0.0237
    107 H           3.5018   -2.9261    0.0000 H       1  UNL1        0.0237
    108 H           4.0359   -2.9863    0.0000 H       1  UNL1        0.0237
    109 H           4.9072   -3.0845    0.0000 H       1  UNL1        0.0237
    110 H           5.0054   -2.2132    0.0000 H       1  UNL1        0.0237
    111 H           8.6455    1.3698    0.0000 H       1  UNL1        0.0236
    112 H           9.2301    0.7163    0.0000 H       1  UNL1        0.0236
    113 H           9.8835    1.3009    0.0000 H       1  UNL1        0.0236
    114 H           9.9946    3.2979    0.0000 H       1  UNL1        0.0236
    115 H           9.4100    3.9513    0.0000 H       1  UNL1        0.0236
    116 H           8.7565    3.3667    0.0000 H       1  UNL1        0.0236
    117 H           2.2670   -0.5486    0.0000 H       1  UNL1        0.0661
    118 H           1.4404   -0.8411    0.0000 H       1  UNL1        0.0661
    119 H           1.7330   -1.6677    0.0000 H       1  UNL1        0.0661
    120 H          11.9729   -3.7972    0.0000 H       1  UNL1        0.1029
    121 H           4.9081   -1.3651    0.0000 H       1  UNL1        0.0237
    122 H           4.0447   -1.5182    0.0000 H       1  UNL1        0.0237
    123 H           4.1978   -2.3815    0.0000 H       1  UNL1        0.0237
    124 H           4.6686   -3.3890    0.0000 H       1  UNL1        0.0237
    125 H           5.2328   -4.0601    0.0000 H       1  UNL1        0.0237
    126 H           5.9040   -3.4959    0.0000 H       1  UNL1        0.0237
    127 H           7.6242   -3.6275    0.0000 H       1  UNL1        0.0237
    128 H           7.3314   -4.4540    0.0000 H       1  UNL1        0.0237
    129 H           8.1579   -4.7468    0.0000 H       1  UNL1        0.0237
    130 H           9.2665   -4.8342    0.0000 H       1  UNL1        0.0237
    131 H          10.1287   -4.6745    0.0000 H       1  UNL1        0.0237
    132 H           9.9690   -3.8123    0.0000 H       1  UNL1        0.0237
@<TRIPOS>BOND
     1     1    21    1
     2     1    32    1
     3    22     2    1
     4     2    32    1
     5    25     3    1
     6     3    32    1
     7    23     4    1
     8     4    43    1
     9    28     5    1
    10     5    47    1
    11    29     6    1
    12     6    45    1
    13    31     7    1
    14     7    49    1
    15    35     8    1
    16     8    50    1
    17     9    39    1
    18     9    44    1
    19    10    42    1
    20    10    63    1
    21    11    42    2
    22    12    43    2
    23    13    44    2
    24    14    46    1
    25    14   103    1
    26    15    45    2
    27    16    47    2
    28    17    49    2
    29    18    57   ar
    30    18    64   ar
    31    19    50    2
    32    20    21    1
    33    20    22    1
    34    20    26    1
    35    20    33    1
    36    21    23    1
    37    21    27    1
    38    22    25    1
    39    22    31    1
    40    23    28    1
    41    23    29    1
    42    24    26    1
    43    24    27    1
    44    24    28    1
    45    24    36    1
    46    25    29    1
    47    25    30    1
    48    26    37    1
    49    26    69    1
    50    27    70    1
    51    27    71    1
    52    28    72    1
    53    29    73    1
    54    30    34    1
    55    30    38    1
    56    30    74    1
    57    31    35    1
    58    31    75    1
    59    32    40    1
    60    33    76    1
    61    33    77    1
    62    33    78    1
    63    34    35    1
    64    34    39    1
    65    34    41    1
    66    35    79    1
    67    36    80    1
    68    36    81    1
    69    36    82    1
    70    37    42    1
    71    37    83    1
    72    37    84    1
    73    38    44    1
    74    38    46    2
    75    39    48    1
    76    39    85    1
    77    40    86    1
    78    40    87    1
    79    40    88    1
    80    41    89    1
    81    41    90    1
    82    41    91    1
    83    43    51    1
    84    45    52    1
    85    46    53    1
    86    47    54    1
    87    48    56   ar
    88    48    57   ar
    89    49    55    1
    90    50    58    1
    91    51    92    1
    92    51    93    1
    93    51    94    1
    94    52    59    1
    95    52    60    1
    96    52    95    1
    97    53    61    1
    98    53    62    1
    99    53    96    1
   100    54    97    1
   101    54    98    1
   102    54    99    1
   103    55    65    1
   104    55    66    1
   105    55   100    1
   106    56    64   ar
   107    56   101    1
   108    57   102    1
   109    58    67    1
   110    58    68    1
   111    58   104    1
   112    59   108    1
   113    59   109    1
   114    59   110    1
   115    60   105    1
   116    60   106    1
   117    60   107    1
   118    61   114    1
   119    61   115    1
   120    61   116    1
   121    62   111    1
   122    62   112    1
   123    62   113    1
   124    63   117    1
   125    63   118    1
   126    63   119    1
   127    64   120    1
   128    65   124    1
   129    65   125    1
   130    65   126    1
   131    66   121    1
   132    66   122    1
   133    66   123    1
   134    67   127    1
   135    67   128    1
   136    67   129    1
   137    68   130    1
   138    68   131    1
   139    68   132    1
