@<TRIPOS>MOLECULE
IMPHY004206
 51 54 0 0 0
SMALL
GASTEIGER

@<TRIPOS>ATOM
      1 O           4.2690   -1.3729    0.0000 O.3     1  UNL1       -0.3339
      2 O           6.0010   -1.3729    0.0000 O.3     1  UNL1       -0.4606
      3 O           4.2690   -4.3729    0.0000 O.3     1  UNL1       -0.3864
      4 O           2.5369   -3.3729    0.0000 O.3     1  UNL1       -0.3866
      5 O           6.0010   -3.3729    0.0000 O.3     1  UNL1       -0.3829
      6 O           7.7570    1.6896    0.0000 O.2     1  UNL1       -0.4507
      7 O           4.2548    1.7062    0.0000 O.3     1  UNL1       -0.5058
      8 O           6.9006    4.1929    0.0000 O.3     1  UNL1       -0.5007
      9 O           5.1647    3.1996    0.0000 O.2     1  UNL1       -0.2830
     10 O          11.2326    4.6762    0.0000 O.3     1  UNL1       -0.5068
     11 C           4.2690   -3.3729    0.0000 C.3     1  UNL1        0.1151
     12 C           3.4030   -2.8729    0.0000 C.3     1  UNL1        0.1096
     13 C           5.1350   -2.8729    0.0000 C.3     1  UNL1        0.1454
     14 C           3.4030   -1.8729    0.0000 C.3     1  UNL1        0.0883
     15 C           5.1350   -1.8729    0.0000 C.3     1  UNL1        0.2307
     16 C           2.5369   -1.3729    0.0000 C.3     1  UNL1       -0.0360
     17 C           6.0010   -0.3729    0.0000 C.ar    1  UNL1        0.1310
     18 C           6.9011    0.1514    0.0000 C.ar    1  UNL1        0.0235
     19 C           5.1010    0.1514    0.0000 C.ar    1  UNL1        0.0226
     20 C           6.8891    1.1930    0.0000 C.ar    1  UNL1        0.1465
     21 C           6.0250    1.6963    0.0000 C.ar    1  UNL1        0.1092
     22 C           5.1130    1.1930    0.0000 C.ar    1  UNL1        0.1348
     23 C           6.0288    2.6963    0.0000 C.ar    1  UNL1        0.2379
     24 C           7.7609    2.6896    0.0000 C.ar    1  UNL1        0.1806
     25 C           6.8968    3.1929    0.0000 C.ar    1  UNL1        0.2082
     26 C           8.6288    3.1862    0.0000 C.ar    1  UNL1        0.0213
     27 C           9.4929    2.6829    0.0000 C.ar    1  UNL1       -0.0475
     28 C           8.6327    4.1862    0.0000 C.ar    1  UNL1       -0.0475
     29 C          10.3608    3.1796    0.0000 C.ar    1  UNL1       -0.0195
     30 C           9.5006    4.6829    0.0000 C.ar    1  UNL1       -0.0195
     31 C          10.3647    4.1796    0.0000 C.ar    1  UNL1        0.1169
     32 H           4.8059   -3.6829    0.0000 H       1  UNL1        0.0648
     33 H           3.4030   -3.4929    0.0000 H       1  UNL1        0.0646
     34 H           5.6720   -2.5629    0.0000 H       1  UNL1        0.0683
     35 H           3.4030   -1.2529    0.0000 H       1  UNL1        0.0621
     36 H           5.1350   -1.2529    0.0000 H       1  UNL1        0.1084
     37 H           2.8469   -0.8360    0.0000 H       1  UNL1        0.0255
     38 H           2.0000   -1.0629    0.0000 H       1  UNL1        0.0255
     39 H           2.2269   -1.9098    0.0000 H       1  UNL1        0.0255
     40 H           3.7320   -4.6829    0.0000 H       1  UNL1        0.2100
     41 H           2.0000   -3.0629    0.0000 H       1  UNL1        0.2100
     42 H           6.0010   -3.9929    0.0000 H       1  UNL1        0.2102
     43 H           7.4404   -0.1545    0.0000 H       1  UNL1        0.0691
     44 H           4.5617   -0.1545    0.0000 H       1  UNL1        0.0691
     45 H           3.7132    1.4046    0.0000 H       1  UNL1        0.2922
     46 H           9.4905    2.0629    0.0000 H       1  UNL1        0.0626
     47 H           8.0969    4.4983    0.0000 H       1  UNL1        0.0626
     48 H           6.3649    4.5050    0.0000 H       1  UNL1        0.2924
     49 H          10.8966    2.8675    0.0000 H       1  UNL1        0.0654
     50 H           9.5030    5.3029    0.0000 H       1  UNL1        0.0654
     51 H          11.7684    4.3642    0.0000 H       1  UNL1        0.2921
@<TRIPOS>BOND
     1     1    14    1
     2     1    15    1
     3     2    15    1
     4     2    17    1
     5    11     3    1
     6     3    40    1
     7    12     4    1
     8     4    41    1
     9    13     5    1
    10     5    42    1
    11     6    20   ar
    12     6    24   ar
    13     7    22    1
    14     7    45    1
    15     8    25    1
    16     8    48    1
    17     9    23    2
    18    10    31    1
    19    10    51    1
    20    11    12    1
    21    11    13    1
    22    11    32    1
    23    12    14    1
    24    12    33    1
    25    13    15    1
    26    13    34    1
    27    14    16    1
    28    14    35    1
    29    15    36    1
    30    16    37    1
    31    16    38    1
    32    16    39    1
    33    17    18   ar
    34    17    19   ar
    35    18    20   ar
    36    18    43    1
    37    19    22   ar
    38    19    44    1
    39    20    21   ar
    40    21    22   ar
    41    21    23   ar
    42    23    25   ar
    43    24    25   ar
    44    24    26    1
    45    26    27   ar
    46    26    28   ar
    47    27    29   ar
    48    27    46    1
    49    28    30   ar
    50    28    47    1
    51    29    31   ar
    52    29    49    1
    53    30    31   ar
    54    30    50    1
