@<TRIPOS>MOLECULE
IMPHY007918
 81 86 0 0 0
SMALL
GASTEIGER

@<TRIPOS>ATOM
      1 O           8.6429    1.8066    0.0000 O.3     1  UNL1       -0.4526
      2 O           9.4655    3.4057    0.0000 O.2     1  UNL1       -0.2502
      3 O           3.2332   -2.0294    0.0000 O.3     1  UNL1       -0.3886
      4 O           5.0837   -3.0978    0.0000 O.3     1  UNL1       -0.3892
      5 O           2.6200    0.4807    0.0000 O.3     1  UNL1       -0.3944
      6 C           7.8903    1.7030    0.0000 C.3     1  UNL1        0.0177
      7 C           6.9803    1.1962    0.0000 C.3     1  UNL1       -0.0160
      8 C           8.7563    1.2030    0.0000 C.3     1  UNL1        0.1415
      9 C           9.6223    1.7030    0.0000 C.3     1  UNL1        0.0217
     10 C           6.9722    0.1546    0.0000 C.3     1  UNL1       -0.0110
     11 C           9.6223    2.7030    0.0000 C.3     1  UNL1        0.0748
     12 C           6.0368   -0.3952    0.0000 C.3     1  UNL1       -0.0194
     13 C           7.8903    2.7030    0.0000 C.3     1  UNL1       -0.0421
     14 C           5.0972    0.1473    0.0000 C.3     1  UNL1       -0.0250
     15 C           6.0534    1.7602    0.0000 C.3     1  UNL1       -0.0461
     16 C           8.7563    3.2030    0.0000 C.3     1  UNL1       -0.0362
     17 C          10.5163    1.1684    0.0000 C.3     1  UNL1       -0.0335
     18 C           5.1056    1.2323    0.0000 C.3     1  UNL1       -0.0485
     19 C           8.7724    0.1615    0.0000 C.2     1  UNL1       -0.0437
     20 C           4.1098   -0.4026    0.0000 C.3     1  UNL1        0.0227
     21 C          10.5163    3.2377    0.0000 C.3     1  UNL1       -0.0366
     22 C           7.8743   -0.3663    0.0000 C.2     1  UNL1       -0.0800
     23 C           7.2475    2.4691    0.0000 C.3     1  UNL1       -0.0551
     24 C           6.0542   -1.5252    0.0000 C.3     1  UNL1       -0.0182
     25 C           6.6455    2.1385    0.0000 C.3     1  UNL1       -0.0584
     26 C           9.0429    2.4994    0.0000 C.2     1  UNL1        0.3146
     27 C          11.4223    1.6822    0.0000 C.3     1  UNL1       -0.0408
     28 C          11.4223    2.7238    0.0000 C.3     1  UNL1       -0.0492
     29 C           6.9028   -0.8952    0.0000 C.3     1  UNL1       -0.0587
     30 C           4.1011   -1.5327    0.0000 C.3     1  UNL1        0.0888
     31 C           5.0799   -2.0978    0.0000 C.3     1  UNL1        0.0822
     32 C          10.5047    0.1684    0.0000 C.3     1  UNL1       -0.0618
     33 C           3.1099   -0.3910    0.0000 C.3     1  UNL1        0.0523
     34 C           3.6199    0.4692    0.0000 C.3     1  UNL1       -0.0547
     35 C          12.2864    1.1789    0.0000 C.3     1  UNL1       -0.0622
     36 H           9.6223    0.8530    0.0000 H       1  UNL1        0.0356
     37 H           6.9755   -0.6954    0.0000 H       1  UNL1        0.0354
     38 H           7.6782    3.2856    0.0000 H       1  UNL1        0.0272
     39 H           7.2797    2.5954    0.0000 H       1  UNL1        0.0272
     40 H           4.3660    0.5808    0.0000 H       1  UNL1        0.0313
     41 H           6.4616    2.2269    0.0000 H       1  UNL1        0.0271
     42 H           5.6635    2.2423    0.0000 H       1  UNL1        0.0271
     43 H           9.1548    3.6780    0.0000 H       1  UNL1        0.0276
     44 H           8.3578    3.6780    0.0000 H       1  UNL1        0.0276
     45 H          11.0502    0.8532    0.0000 H       1  UNL1        0.0305
     46 H           4.9010    1.8176    0.0000 H       1  UNL1        0.0268
     47 H           4.4939    1.1309    0.0000 H       1  UNL1        0.0268
     48 H           9.3128   -0.1423    0.0000 H       1  UNL1        0.0609
     49 H           7.8767   -0.9862    0.0000 H       1  UNL1        0.0573
     50 H          10.9099    3.7167    0.0000 H       1  UNL1        0.0276
     51 H          10.1117    3.7075    0.0000 H       1  UNL1        0.0276
     52 H           7.7224    2.8676    0.0000 H       1  UNL1        0.0237
     53 H           6.8490    2.9440    0.0000 H       1  UNL1        0.0237
     54 H           6.7725    2.0705    0.0000 H       1  UNL1        0.0237
     55 H           6.2723   -2.1056    0.0000 H       1  UNL1        0.0296
     56 H           6.6634   -1.4097    0.0000 H       1  UNL1        0.0296
     57 H           7.2297    2.3460    0.0000 H       1  UNL1        0.0235
     58 H           6.4380    2.7227    0.0000 H       1  UNL1        0.0235
     59 H           6.0613    1.9309    0.0000 H       1  UNL1        0.0235
     60 H          11.4188    1.0622    0.0000 H       1  UNL1        0.0301
     61 H          12.0332    2.6177    0.0000 H       1  UNL1        0.0268
     62 H          11.6314    3.3075    0.0000 H       1  UNL1        0.0268
     63 H           6.5928   -1.4321    0.0000 H       1  UNL1        0.0235
     64 H           7.4398   -1.2052    0.0000 H       1  UNL1        0.0235
     65 H           7.2128   -0.3582    0.0000 H       1  UNL1        0.0235
     66 H           4.0999   -2.1527    0.0000 H       1  UNL1        0.0625
     67 H           5.6186   -2.4047    0.0000 H       1  UNL1        0.0619
     68 H           9.8848    0.1756    0.0000 H       1  UNL1        0.0233
     69 H          10.4975   -0.4515    0.0000 H       1  UNL1        0.0233
     70 H          11.1247    0.1612    0.0000 H       1  UNL1        0.0233
     71 H           2.5249   -0.5963    0.0000 H       1  UNL1        0.0563
     72 H           3.2105   -1.0028    0.0000 H       1  UNL1        0.0563
     73 H           4.1604    0.7729    0.0000 H       1  UNL1        0.0237
     74 H           3.3161    1.0096    0.0000 H       1  UNL1        0.0237
     75 H           3.0794    0.1654    0.0000 H       1  UNL1        0.0237
     76 H          11.9744    0.6431    0.0000 H       1  UNL1        0.0233
     77 H          12.8222    0.8668    0.0000 H       1  UNL1        0.0233
     78 H          12.5985    1.7146    0.0000 H       1  UNL1        0.0233
     79 H           3.2308   -2.6494    0.0000 H       1  UNL1        0.2099
     80 H           5.6219   -3.4057    0.0000 H       1  UNL1        0.2099
     81 H           2.0000    0.4879    0.0000 H       1  UNL1        0.2094
@<TRIPOS>BOND
     1     1     8    1
     2     1    26    1
     3     2    26    2
     4    30     3    1
     5     3    79    1
     6    31     4    1
     7     4    80    1
     8     5    33    1
     9     5    81    1
    10     6     7    1
    11     6     8    1
    12     6    13    1
    13     6    23    1
    14     7    10    1
    15     7    15    1
    16     7    25    1
    17     8     9    1
    18     8    19    1
    19     9    11    1
    20     9    17    1
    21     9    36    1
    22    10    12    1
    23    10    22    1
    24    10    37    1
    25    11    16    1
    26    11    21    1
    27    11    26    1
    28    12    14    1
    29    12    24    1
    30    12    29    1
    31    13    16    1
    32    13    38    1
    33    13    39    1
    34    14    18    1
    35    14    20    1
    36    14    40    1
    37    15    18    1
    38    15    41    1
    39    15    42    1
    40    16    43    1
    41    16    44    1
    42    17    27    1
    43    17    32    1
    44    17    45    1
    45    18    46    1
    46    18    47    1
    47    19    22    2
    48    19    48    1
    49    20    30    1
    50    20    33    1
    51    20    34    1
    52    21    28    1
    53    21    50    1
    54    21    51    1
    55    22    49    1
    56    23    52    1
    57    23    53    1
    58    23    54    1
    59    24    31    1
    60    24    55    1
    61    24    56    1
    62    25    57    1
    63    25    58    1
    64    25    59    1
    65    27    28    1
    66    27    35    1
    67    27    60    1
    68    28    61    1
    69    28    62    1
    70    29    63    1
    71    29    64    1
    72    29    65    1
    73    30    31    1
    74    30    66    1
    75    31    67    1
    76    32    68    1
    77    32    69    1
    78    32    70    1
    79    33    71    1
    80    33    72    1
    81    34    73    1
    82    34    74    1
    83    34    75    1
    84    35    76    1
    85    35    77    1
    86    35    78    1
