@<TRIPOS>MOLECULE
IMPHY008022
 90 94 0 0 0
SMALL
GASTEIGER

@<TRIPOS>ATOM
      1 O           4.6403    0.7841    0.0000 O.3     1  UNL1       -0.4864
      2 O           8.2454   -1.3452    0.0000 O.2     1  UNL1       -0.2734
      3 O           9.1049   -0.0145    0.0000 O.2     1  UNL1       -0.2735
      4 O           6.4849   -5.1891    0.0000 O.2     1  UNL1       -0.2734
      5 O          10.0831    0.1934    0.0000 O.2     1  UNL1       -0.2741
      6 N           7.4576    0.5207    0.0000 N.am    1  UNL1       -0.2849
      7 N           7.3622   -2.3506    0.0000 N.am    1  UNL1       -0.2883
      8 N           9.7230    1.8876    0.0000 N.am    1  UNL1       -0.3024
      9 N           4.8181   -4.6569    0.0000 N.am    1  UNL1       -0.2904
     10 N          11.6792    2.3034    0.0000 N.3     1  UNL1       -0.2974
     11 C           6.6486   -0.0671    0.0000 C.3     1  UNL1        0.1392
     12 C           5.8396    0.5207    0.0000 C.3     1  UNL1        0.1285
     13 C           6.1486    1.4718    0.0000 C.3     1  UNL1        0.0024
     14 C           7.1486    1.4718    0.0000 C.3     1  UNL1        0.0191
     15 C           6.9074   -3.4911    0.0000 C.3     1  UNL1        0.1026
     16 C           7.2697   -1.1263    0.0000 C.2     1  UNL1        0.2404
     17 C           6.5281   -1.7787    0.0000 C.3     1  UNL1        0.0156
     18 C           5.9086   -3.3321    0.0000 C.3     1  UNL1       -0.0243
     19 C           5.6898   -2.3446    0.0000 C.3     1  UNL1       -0.0350
     20 C           8.4358    0.7286    0.0000 C.2     1  UNL1        0.2369
     21 C           8.7448    1.6797    0.0000 C.3     1  UNL1        0.1036
     22 C           5.9976   -4.3158    0.0000 C.2     1  UNL1        0.2373
     23 C           8.0757    2.4228    0.0000 C.3     1  UNL1       -0.0007
     24 C           3.4473    0.4937    0.0000 C.ar    1  UNL1        0.1211
     25 C          11.3702    1.3524    0.0000 C.3     1  UNL1        0.0893
     26 C          12.0394    0.6092    0.0000 C.3     1  UNL1       -0.0200
     27 C          10.3921    1.1444    0.0000 C.2     1  UNL1        0.2311
     28 C           8.3847    3.3739    0.0000 C.ar    1  UNL1       -0.0451
     29 C          13.0175    0.8171    0.0000 C.3     1  UNL1       -0.0514
     30 C           3.0148   -0.5665    0.0000 C.ar    1  UNL1       -0.0194
     31 C           2.5032   -0.2913    0.0000 C.ar    1  UNL1       -0.0194
     32 C          11.7303   -0.3419    0.0000 C.3     1  UNL1       -0.0605
     33 C           3.6087   -4.4450    0.0000 C.2     1  UNL1       -0.0031
     34 C           2.0401   -2.6385    0.0000 C.ar    1  UNL1       -0.0236
     35 C           2.5455   -1.6111    0.0000 C.ar    1  UNL1       -0.0511
     36 C           2.0000   -1.4113    0.0000 C.ar    1  UNL1       -0.0511
     37 C           9.3628    3.5818    0.0000 C.ar    1  UNL1       -0.0585
     38 C           7.7156    4.1170    0.0000 C.ar    1  UNL1       -0.0585
     39 C           2.6153   -3.7233    0.0000 C.2     1  UNL1       -0.0407
     40 C          12.6574    2.5113    0.0000 C.3     1  UNL1       -0.0123
     41 C          11.0101    3.0466    0.0000 C.3     1  UNL1       -0.0123
     42 C          13.6866    0.0740    0.0000 C.3     1  UNL1       -0.0650
     43 C           9.6719    4.5328    0.0000 C.ar    1  UNL1       -0.0615
     44 C           8.0246    5.0681    0.0000 C.ar    1  UNL1       -0.0615
     45 C           9.0027    5.2760    0.0000 C.ar    1  UNL1       -0.0617
     46 H           7.2555   -0.1939    0.0000 H       1  UNL1        0.0634
     47 H           6.4293    0.7123    0.0000 H       1  UNL1        0.0757
     48 H           6.2134    2.0884    0.0000 H       1  UNL1        0.0317
     49 H           5.5422    1.6007    0.0000 H       1  UNL1        0.0317
     50 H           7.7551    1.6007    0.0000 H       1  UNL1        0.0466
     51 H           7.0838    2.0884    0.0000 H       1  UNL1        0.0466
     52 H           7.4166   -3.8448    0.0000 H       1  UNL1        0.0597
     53 H           6.9398   -1.3152    0.0000 H       1  UNL1        0.0465
     54 H           6.1196   -1.3122    0.0000 H       1  UNL1        0.0465
     55 H           5.2912   -3.3895    0.0000 H       1  UNL1        0.0288
     56 H           5.8883   -3.9518    0.0000 H       1  UNL1        0.0288
     57 H           5.4098   -1.7914    0.0000 H       1  UNL1        0.0281
     58 H           5.1060   -2.5533    0.0000 H       1  UNL1        0.0281
     59 H           8.9364    2.2693    0.0000 H       1  UNL1        0.0598
     60 H           7.5282    2.7139    0.0000 H       1  UNL1        0.0336
     61 H           7.6940    1.9342    0.0000 H       1  UNL1        0.0336
     62 H           9.9145    2.4772    0.0000 H       1  UNL1        0.1495
     63 H          10.9554    1.8131    0.0000 H       1  UNL1        0.0561
     64 H          11.4329    0.4803    0.0000 H       1  UNL1        0.0318
     65 H           4.8516   -5.2760    0.0000 H       1  UNL1        0.1543
     66 H          13.5433    1.1457    0.0000 H       1  UNL1        0.0266
     67 H          12.7853    1.3920    0.0000 H       1  UNL1        0.0266
     68 H           3.5847   -0.8107    0.0000 H       1  UNL1        0.0654
     69 H           2.0095    0.0837    0.0000 H       1  UNL1        0.0654
     70 H          11.1407   -0.1503    0.0000 H       1  UNL1        0.0233
     71 H          11.5388   -0.9315    0.0000 H       1  UNL1        0.0233
     72 H          12.3200   -0.5334    0.0000 H       1  UNL1        0.0233
     73 H           3.3668   -5.0159    0.0000 H       1  UNL1        0.0782
     74 H           3.1066   -1.8750    0.0000 H       1  UNL1        0.0625
     75 H           1.3917   -1.2913    0.0000 H       1  UNL1        0.0625
     76 H           9.7777    3.1210    0.0000 H       1  UNL1        0.0620
     77 H           7.1091    3.9881    0.0000 H       1  UNL1        0.0620
     78 H           2.1472   -4.1298    0.0000 H       1  UNL1        0.0636
     79 H          12.7863    1.9049    0.0000 H       1  UNL1        0.0391
     80 H          13.2638    2.6402    0.0000 H       1  UNL1        0.0391
     81 H          12.5285    3.1178    0.0000 H       1  UNL1        0.0391
     82 H          11.4709    3.4614    0.0000 H       1  UNL1        0.0391
     83 H          10.5953    3.5073    0.0000 H       1  UNL1        0.0391
     84 H          10.5494    2.6317    0.0000 H       1  UNL1        0.0391
     85 H          13.2259   -0.3409    0.0000 H       1  UNL1        0.0230
     86 H          14.1015   -0.3868    0.0000 H       1  UNL1        0.0230
     87 H          14.1474    0.4888    0.0000 H       1  UNL1        0.0230
     88 H          10.2783    4.6617    0.0000 H       1  UNL1        0.0618
     89 H           7.6097    5.5288    0.0000 H       1  UNL1        0.0618
     90 H           9.1943    5.8656    0.0000 H       1  UNL1        0.0618
@<TRIPOS>BOND
     1     1    12    1
     2     1    24    1
     3     2    16    2
     4     3    20    2
     5     4    22    2
     6     5    27    2
     7     6    11    1
     8     6    14    1
     9     6    20   am
    10     7    15    1
    11     7    16   am
    12     7    17    1
    13     8    21    1
    14     8    27   am
    15     8    62    1
    16     9    22   am
    17     9    33    1
    18     9    65    1
    19    10    25    1
    20    10    40    1
    21    10    41    1
    22    11    12    1
    23    11    16    1
    24    11    46    1
    25    12    13    1
    26    12    47    1
    27    13    14    1
    28    13    48    1
    29    13    49    1
    30    14    50    1
    31    14    51    1
    32    15    18    1
    33    15    22    1
    34    15    52    1
    35    17    19    1
    36    17    53    1
    37    17    54    1
    38    18    19    1
    39    18    55    1
    40    18    56    1
    41    19    57    1
    42    19    58    1
    43    20    21    1
    44    21    23    1
    45    21    59    1
    46    23    28    1
    47    23    60    1
    48    23    61    1
    49    24    30   ar
    50    24    31   ar
    51    25    26    1
    52    25    27    1
    53    25    63    1
    54    26    29    1
    55    26    32    1
    56    26    64    1
    57    28    37   ar
    58    28    38   ar
    59    29    42    1
    60    29    66    1
    61    29    67    1
    62    30    35   ar
    63    30    68    1
    64    31    36   ar
    65    31    69    1
    66    32    70    1
    67    32    71    1
    68    32    72    1
    69    33    39    2
    70    33    73    1
    71    34    35   ar
    72    34    36   ar
    73    34    39    1
    74    35    74    1
    75    36    75    1
    76    37    43   ar
    77    37    76    1
    78    38    44   ar
    79    38    77    1
    80    39    78    1
    81    40    79    1
    82    40    80    1
    83    40    81    1
    84    41    82    1
    85    41    83    1
    86    41    84    1
    87    42    85    1
    88    42    86    1
    89    42    87    1
    90    43    45   ar
    91    43    88    1
    92    44    45   ar
    93    44    89    1
    94    45    90    1
