@<TRIPOS>MOLECULE
IMPHY009562
 41 42 0 0 0
SMALL
GASTEIGER

@<TRIPOS>ATOM
      1 O           7.2241   -2.0347    0.0000 O.3     1  UNL1       -0.4815
      2 O           3.7320   -0.0000    0.0000 O.3     1  UNL1       -0.4188
      3 O           3.7320   -2.0000    0.0000 O.3     1  UNL1       -0.4913
      4 O           4.5981    1.5000    0.0000 O.2     1  UNL1       -0.2449
      5 C           8.1301   -1.5208    0.0000 C.3     1  UNL1        0.1235
      6 C           8.1301   -0.4792    0.0000 C.2     1  UNL1       -0.0409
      7 C           6.3301   -1.5000    0.0000 C.ar    1  UNL1        0.1325
      8 C           6.3301   -0.5000    0.0000 C.ar    1  UNL1        0.0202
      9 C           9.1301   -1.5247    0.0000 C.3     1  UNL1       -0.0215
     10 C           8.6268   -2.3888    0.0000 C.3     1  UNL1       -0.0215
     11 C           7.2241    0.0347    0.0000 C.2     1  UNL1       -0.0512
     12 C           5.4641   -2.0000    0.0000 C.ar    1  UNL1        0.0261
     13 C           5.4641   -0.0000    0.0000 C.ar    1  UNL1       -0.0049
     14 C           4.5981   -0.5000    0.0000 C.ar    1  UNL1        0.1741
     15 C           4.5981   -1.5000    0.0000 C.ar    1  UNL1        0.1657
     16 C           3.7320    1.0000    0.0000 C.2     1  UNL1        0.3399
     17 C           2.8660    1.5000    0.0000 C.2     1  UNL1        0.0298
     18 C           3.7320   -3.0000    0.0000 C.3     1  UNL1        0.0790
     19 C           2.0000    1.0000    0.0000 C.3     1  UNL1       -0.0332
     20 C           2.8660    2.5000    0.0000 C.2     1  UNL1       -0.0774
     21 C           3.7320    3.0000    0.0000 C.3     1  UNL1       -0.0461
     22 H           8.6659   -0.1671    0.0000 H       1  UNL1        0.0611
     23 H           8.0887   -2.6967    0.0000 H       1  UNL1        0.0271
     24 H           8.9347   -2.9269    0.0000 H       1  UNL1        0.0271
     25 H           9.1277   -2.1447    0.0000 H       1  UNL1        0.0271
     26 H           9.7501   -1.5271    0.0000 H       1  UNL1        0.0271
     27 H           9.1325   -0.9047    0.0000 H       1  UNL1        0.0271
     28 H           9.1649   -2.0808    0.0000 H       1  UNL1        0.0271
     29 H           7.2169    0.6546    0.0000 H       1  UNL1        0.0623
     30 H           5.4641   -2.6200    0.0000 H       1  UNL1        0.0692
     31 H           5.4641    0.6200    0.0000 H       1  UNL1        0.0663
     32 H           3.1120   -3.0000    0.0000 H       1  UNL1        0.0660
     33 H           3.7320   -3.6200    0.0000 H       1  UNL1        0.0660
     34 H           4.3520   -3.0000    0.0000 H       1  UNL1        0.0660
     35 H           1.6900    1.5369    0.0000 H       1  UNL1        0.0280
     36 H           1.4631    0.6900    0.0000 H       1  UNL1        0.0280
     37 H           2.3100    0.4631    0.0000 H       1  UNL1        0.0280
     38 H           2.3291    2.8100    0.0000 H       1  UNL1        0.0574
     39 H           4.0420    2.4631    0.0000 H       1  UNL1        0.0272
     40 H           4.2690    3.3100    0.0000 H       1  UNL1        0.0272
     41 H           3.4220    3.5369    0.0000 H       1  UNL1        0.0272
@<TRIPOS>BOND
     1     1     5    1
     2     1     7    1
     3     2    14    1
     4     2    16    1
     5     3    15    1
     6     3    18    1
     7     4    16    2
     8     5     6    1
     9     5     9    1
    10     5    10    1
    11     6    11    2
    12     6    22    1
    13     7     8   ar
    14     7    12   ar
    15     8    11    1
    16     8    13   ar
    17     9    25    1
    18     9    26    1
    19     9    27    1
    20    10    23    1
    21    10    24    1
    22    10    28    1
    23    11    29    1
    24    12    15   ar
    25    12    30    1
    26    13    14   ar
    27    13    31    1
    28    14    15   ar
    29    16    17    1
    30    17    19    1
    31    17    20    2
    32    18    32    1
    33    18    33    1
    34    18    34    1
    35    19    35    1
    36    19    36    1
    37    19    37    1
    38    20    21    1
    39    20    38    1
    40    21    39    1
    41    21    40    1
    42    21    41    1
