@<TRIPOS>MOLECULE
IMPHY013078
 98 103 0 0 0
SMALL
GASTEIGER

@<TRIPOS>ATOM
      1 O           6.8779   -3.6913    0.0000 O.3     1  UNL1       -0.3366
      2 O           5.1459   -1.6913    0.0000 O.3     1  UNL1       -0.3313
      3 O           6.0119   -5.1913    0.0000 O.3     1  UNL1       -0.3405
      4 O           6.8779   -1.6913    0.0000 O.3     1  UNL1       -0.4532
      5 O           5.1459   -4.6913    0.0000 O.3     1  UNL1       -0.3863
      6 O           3.4138   -3.6913    0.0000 O.3     1  UNL1       -0.3865
      7 O           8.6100   -4.6913    0.0000 O.3     1  UNL1       -0.3841
      8 O           8.6100   -6.6913    0.0000 O.3     1  UNL1       -0.3864
      9 O           6.8779   -7.6913    0.0000 O.3     1  UNL1       -0.3865
     10 O           5.1396    5.3813    0.0000 O.3     1  UNL1       -0.3313
     11 O           2.5478   -2.1913    0.0000 O.3     1  UNL1       -0.3924
     12 O           4.2799   -6.1913    0.0000 O.3     1  UNL1       -0.3924
     13 O           5.9998    3.8780    0.0000 O.3     1  UNL1       -0.4606
     14 O           2.5357    3.8913    0.0000 O.3     1  UNL1       -0.3864
     15 O           2.5434    5.8913    0.0000 O.3     1  UNL1       -0.3865
     16 O           4.2639    2.8847    0.0000 O.3     1  UNL1       -0.3829
     17 O           7.7440    0.8087    0.0000 O.2     1  UNL1       -0.4507
     18 O           5.1473    7.3813    0.0000 O.3     1  UNL1       -0.3924
     19 O           5.1459   -0.6913    0.0000 O.2     1  UNL1       -0.2830
     20 O           4.2417    0.8056    0.0000 O.3     1  UNL1       -0.5058
     21 O          11.2081   -0.1913    0.0000 O.3     1  UNL1       -0.4914
     22 O          11.2081   -2.1913    0.0000 O.3     1  UNL1       -0.5033
     23 C           6.0119   -3.1913    0.0000 C.3     1  UNL1        0.1519
     24 C           5.1459   -3.6913    0.0000 C.3     1  UNL1        0.1155
     25 C           4.2799   -3.1913    0.0000 C.3     1  UNL1        0.1120
     26 C           6.8779   -4.6913    0.0000 C.3     1  UNL1        0.1886
     27 C           7.7440   -5.1913    0.0000 C.3     1  UNL1        0.1341
     28 C           6.0119   -2.1913    0.0000 C.3     1  UNL1        0.2315
     29 C           4.2799   -2.1913    0.0000 C.3     1  UNL1        0.1140
     30 C           7.7440   -6.1913    0.0000 C.3     1  UNL1        0.1141
     31 C           6.8779   -6.6913    0.0000 C.3     1  UNL1        0.1119
     32 C           6.0119   -6.1913    0.0000 C.3     1  UNL1        0.1130
     33 C           3.4138   -1.6913    0.0000 C.3     1  UNL1        0.0731
     34 C           5.1459   -6.6913    0.0000 C.3     1  UNL1        0.0730
     35 C           3.4037    4.3880    0.0000 C.3     1  UNL1        0.1152
     36 C           3.4075    5.3880    0.0000 C.3     1  UNL1        0.1120
     37 C           4.2678    3.8846    0.0000 C.3     1  UNL1        0.1454
     38 C           4.2755    5.8846    0.0000 C.3     1  UNL1        0.1140
     39 C           5.1357    4.3813    0.0000 C.3     1  UNL1        0.2308
     40 C           6.8779   -0.6913    0.0000 C.ar    1  UNL1        0.2138
     41 C           4.2793    6.8846    0.0000 C.3     1  UNL1        0.0731
     42 C           7.7440   -0.1913    0.0000 C.ar    1  UNL1        0.1810
     43 C           6.0119   -0.1913    0.0000 C.ar    1  UNL1        0.2382
     44 C           6.0119    0.8087    0.0000 C.ar    1  UNL1        0.1092
     45 C           5.9960    2.8780    0.0000 C.ar    1  UNL1        0.1310
     46 C           6.8779    1.3087    0.0000 C.ar    1  UNL1        0.1465
     47 C           6.8940    2.3502    0.0000 C.ar    1  UNL1        0.0235
     48 C           5.1019    1.3156    0.0000 C.ar    1  UNL1        0.1348
     49 C           8.6100   -0.6913    0.0000 C.ar    1  UNL1        0.0247
     50 C           5.0939    2.3572    0.0000 C.ar    1  UNL1        0.0226
     51 C           9.4760   -0.1913    0.0000 C.ar    1  UNL1       -0.0055
     52 C           8.6100   -1.6913    0.0000 C.ar    1  UNL1       -0.0473
     53 C          10.3420   -0.6913    0.0000 C.ar    1  UNL1        0.1619
     54 C           9.4760   -2.1913    0.0000 C.ar    1  UNL1       -0.0159
     55 C          10.3420   -1.6913    0.0000 C.ar    1  UNL1        0.1585
     56 C          11.2081    0.8087    0.0000 C.3     1  UNL1        0.0790
     57 H           6.0119   -3.8113    0.0000 H       1  UNL1        0.0687
     58 H           4.6090   -4.0013    0.0000 H       1  UNL1        0.0648
     59 H           3.7429   -2.8813    0.0000 H       1  UNL1        0.0647
     60 H           7.4149   -4.3813    0.0000 H       1  UNL1        0.0938
     61 H           8.2809   -5.5013    0.0000 H       1  UNL1        0.0671
     62 H           6.0119   -1.5713    0.0000 H       1  UNL1        0.1084
     63 H           4.2799   -1.5713    0.0000 H       1  UNL1        0.0647
     64 H           8.2809   -5.8813    0.0000 H       1  UNL1        0.0648
     65 H           7.4149   -7.0013    0.0000 H       1  UNL1        0.0647
     66 H           5.4750   -5.8813    0.0000 H       1  UNL1        0.0647
     67 H           3.8124   -1.2163    0.0000 H       1  UNL1        0.0584
     68 H           3.0153   -1.2163    0.0000 H       1  UNL1        0.0584
     69 H           4.7474   -7.1662    0.0000 H       1  UNL1        0.0584
     70 H           5.5444   -7.1662    0.0000 H       1  UNL1        0.0584
     71 H           4.6090   -5.0013    0.0000 H       1  UNL1        0.2100
     72 H           3.9418    4.6959    0.0000 H       1  UNL1        0.0648
     73 H           2.8694    5.0800    0.0000 H       1  UNL1        0.0647
     74 H           3.4138   -4.3113    0.0000 H       1  UNL1        0.2100
     75 H           3.7296    3.5767    0.0000 H       1  UNL1        0.0683
     76 H           4.8136    6.1926    0.0000 H       1  UNL1        0.0647
     77 H           9.1469   -5.0013    0.0000 H       1  UNL1        0.2101
     78 H           8.6100   -7.3113    0.0000 H       1  UNL1        0.2100
     79 H           5.1333    3.7613    0.0000 H       1  UNL1        0.1084
     80 H           6.3410   -8.0013    0.0000 H       1  UNL1        0.2100
     81 H           4.0695    7.4680    0.0000 H       1  UNL1        0.0584
     82 H           3.6684    6.7793    0.0000 H       1  UNL1        0.0584
     83 H           2.0109   -1.8813    0.0000 H       1  UNL1        0.2095
     84 H           3.7429   -6.5013    0.0000 H       1  UNL1        0.2095
     85 H           2.0000    4.2034    0.0000 H       1  UNL1        0.2100
     86 H           2.5458    6.5113    0.0000 H       1  UNL1        0.2100
     87 H           3.7258    2.5767    0.0000 H       1  UNL1        0.2102
     88 H           7.4345    2.6540    0.0000 H       1  UNL1        0.0691
     89 H           4.5558    2.6651    0.0000 H       1  UNL1        0.0691
     90 H           5.1497    8.0013    0.0000 H       1  UNL1        0.2095
     91 H           9.4760    0.4287    0.0000 H       1  UNL1        0.0662
     92 H           8.0730   -2.0013    0.0000 H       1  UNL1        0.0626
     93 H           3.7012    1.1094    0.0000 H       1  UNL1        0.2922
     94 H           9.4760   -2.8113    0.0000 H       1  UNL1        0.0655
     95 H          11.2081   -2.8113    0.0000 H       1  UNL1        0.2923
     96 H          11.8281    0.8087    0.0000 H       1  UNL1        0.0660
     97 H          11.2081    1.4287    0.0000 H       1  UNL1        0.0660
     98 H          10.5881    0.8087    0.0000 H       1  UNL1        0.0660
@<TRIPOS>BOND
     1     1    23    1
     2     1    26    1
     3     2    28    1
     4     2    29    1
     5     3    26    1
     6     3    32    1
     7     4    28    1
     8     4    40    1
     9     5    24    1
    10     5    71    1
    11     6    25    1
    12     6    74    1
    13     7    27    1
    14     7    77    1
    15     8    30    1
    16     8    78    1
    17     9    31    1
    18     9    80    1
    19    10    38    1
    20    10    39    1
    21    11    33    1
    22    11    83    1
    23    12    34    1
    24    12    84    1
    25    13    39    1
    26    13    45    1
    27    14    35    1
    28    14    85    1
    29    15    36    1
    30    15    86    1
    31    16    37    1
    32    16    87    1
    33    17    42   ar
    34    17    46   ar
    35    18    41    1
    36    18    90    1
    37    19    43    2
    38    20    48    1
    39    20    93    1
    40    21    53    1
    41    21    56    1
    42    22    55    1
    43    22    95    1
    44    23    24    1
    45    23    28    1
    46    23    57    1
    47    24    25    1
    48    24    58    1
    49    25    29    1
    50    25    59    1
    51    26    27    1
    52    26    60    1
    53    27    30    1
    54    27    61    1
    55    28    62    1
    56    29    33    1
    57    29    63    1
    58    30    31    1
    59    30    64    1
    60    31    32    1
    61    31    65    1
    62    32    34    1
    63    32    66    1
    64    33    67    1
    65    33    68    1
    66    34    69    1
    67    34    70    1
    68    35    36    1
    69    35    37    1
    70    35    72    1
    71    36    38    1
    72    36    73    1
    73    37    39    1
    74    37    75    1
    75    38    41    1
    76    38    76    1
    77    39    79    1
    78    40    42   ar
    79    40    43   ar
    80    41    81    1
    81    41    82    1
    82    42    49    1
    83    43    44   ar
    84    44    46   ar
    85    44    48   ar
    86    45    47   ar
    87    45    50   ar
    88    46    47   ar
    89    47    88    1
    90    48    50   ar
    91    49    51   ar
    92    49    52   ar
    93    50    89    1
    94    51    53   ar
    95    51    91    1
    96    52    54   ar
    97    52    92    1
    98    53    55   ar
    99    54    55   ar
   100    54    94    1
   101    56    96    1
   102    56    97    1
   103    56    98    1
