@<TRIPOS>MOLECULE
IMPHY017015
 25 25 0 0 0
SMALL
GASTEIGER

@<TRIPOS>ATOM
      1 O           2.8660   -2.5950    0.0000 O.3     1  UNL1       -0.5068
      2 C           3.7320    1.9050    0.0000 C.3     1  UNL1       -0.0427
      3 C           2.8660    1.4050    0.0000 C.3     1  UNL1       -0.0253
      4 C           2.8660    0.4050    0.0000 C.ar    1  UNL1       -0.0469
      5 C           3.7320    2.9050    0.0000 C.3     1  UNL1       -0.0624
      6 C           4.5981    1.4050    0.0000 C.3     1  UNL1       -0.0624
      7 C           3.7320   -0.0950    0.0000 C.ar    1  UNL1       -0.0551
      8 C           2.0000   -0.0950    0.0000 C.ar    1  UNL1       -0.0551
      9 C           3.7320   -1.0950    0.0000 C.ar    1  UNL1       -0.0199
     10 C           2.0000   -1.0950    0.0000 C.ar    1  UNL1       -0.0199
     11 C           2.8660   -1.5950    0.0000 C.ar    1  UNL1        0.1169
     12 H           3.7320    1.2850    0.0000 H       1  UNL1        0.0299
     13 H           2.6540    1.9876    0.0000 H       1  UNL1        0.0316
     14 H           2.2554    1.2973    0.0000 H       1  UNL1        0.0316
     15 H           4.3520    2.9050    0.0000 H       1  UNL1        0.0232
     16 H           3.7320    3.5250    0.0000 H       1  UNL1        0.0232
     17 H           3.1120    2.9050    0.0000 H       1  UNL1        0.0232
     18 H           4.2881    0.8681    0.0000 H       1  UNL1        0.0232
     19 H           5.1350    1.0950    0.0000 H       1  UNL1        0.0232
     20 H           4.9081    1.9419    0.0000 H       1  UNL1        0.0232
     21 H           4.2690    0.2150    0.0000 H       1  UNL1        0.0621
     22 H           1.4631    0.2150    0.0000 H       1  UNL1        0.0621
     23 H           4.2690   -1.4050    0.0000 H       1  UNL1        0.0654
     24 H           1.4631   -1.4050    0.0000 H       1  UNL1        0.0654
     25 H           2.3291   -2.9050    0.0000 H       1  UNL1        0.2921
@<TRIPOS>BOND
     1     1    11    1
     2     1    25    1
     3     2     3    1
     4     2     5    1
     5     2     6    1
     6     2    12    1
     7     3     4    1
     8     3    13    1
     9     3    14    1
    10     4     7   ar
    11     4     8   ar
    12     5    15    1
    13     5    16    1
    14     5    17    1
    15     6    18    1
    16     6    19    1
    17     6    20    1
    18     7     9   ar
    19     7    21    1
    20     8    10   ar
    21     8    22    1
    22     9    11   ar
    23     9    23    1
    24    10    11   ar
    25    10    24    1
