@<TRIPOS>MOLECULE
IMPHY015324
 41 40 0 0 0
SMALL
GASTEIGER

@<TRIPOS>ATOM
      1 C           4.5981   -0.2500    0.0000 C.3     1  UNL1       -0.0439
      2 C           5.4641    0.2500    0.0000 C.3     1  UNL1       -0.0505
      3 C           6.3301   -0.2500    0.0000 C.3     1  UNL1       -0.0528
      4 C           7.1962    0.2500    0.0000 C.3     1  UNL1       -0.0528
      5 C           8.0622   -0.2500    0.0000 C.3     1  UNL1       -0.0505
      6 C           8.9282    0.2500    0.0000 C.3     1  UNL1       -0.0441
      7 C           3.7320    0.2500    0.0000 C.3     1  UNL1       -0.0507
      8 C           9.7942   -0.2500    0.0000 C.3     1  UNL1       -0.0533
      9 C           4.5981   -1.2500    0.0000 C.3     1  UNL1       -0.0624
     10 C           2.8660   -0.2500    0.0000 C.3     1  UNL1       -0.0557
     11 C           8.9282    1.2500    0.0000 C.3     1  UNL1       -0.0624
     12 C          10.6603    0.2500    0.0000 C.3     1  UNL1       -0.0650
     13 C           2.0000    0.2500    0.0000 C.3     1  UNL1       -0.0653
     14 H           5.1350   -0.5600    0.0000 H       1  UNL1        0.0298
     15 H           5.8626    0.7249    0.0000 H       1  UNL1        0.0268
     16 H           5.0656    0.7249    0.0000 H       1  UNL1        0.0268
     17 H           5.9316   -0.7249    0.0000 H       1  UNL1        0.0265
     18 H           6.7287   -0.7249    0.0000 H       1  UNL1        0.0265
     19 H           7.5947    0.7249    0.0000 H       1  UNL1        0.0265
     20 H           6.7976    0.7249    0.0000 H       1  UNL1        0.0265
     21 H           7.6636   -0.7249    0.0000 H       1  UNL1        0.0268
     22 H           8.4607   -0.7249    0.0000 H       1  UNL1        0.0268
     23 H           9.4651    0.5600    0.0000 H       1  UNL1        0.0298
     24 H           4.1306    0.7249    0.0000 H       1  UNL1        0.0268
     25 H           3.3335    0.7249    0.0000 H       1  UNL1        0.0268
     26 H           9.3957   -0.7249    0.0000 H       1  UNL1        0.0265
     27 H          10.1928   -0.7249    0.0000 H       1  UNL1        0.0265
     28 H           3.9781   -1.2500    0.0000 H       1  UNL1        0.0232
     29 H           4.5981   -1.8700    0.0000 H       1  UNL1        0.0232
     30 H           5.2181   -1.2500    0.0000 H       1  UNL1        0.0232
     31 H           2.4675   -0.7249    0.0000 H       1  UNL1        0.0263
     32 H           3.2646   -0.7249    0.0000 H       1  UNL1        0.0263
     33 H           9.5482    1.2500    0.0000 H       1  UNL1        0.0232
     34 H           8.9282    1.8700    0.0000 H       1  UNL1        0.0232
     35 H           8.3082    1.2500    0.0000 H       1  UNL1        0.0232
     36 H          10.9703   -0.2869    0.0000 H       1  UNL1        0.0230
     37 H          11.1972    0.5600    0.0000 H       1  UNL1        0.0230
     38 H          10.3503    0.7869    0.0000 H       1  UNL1        0.0230
     39 H           2.3100    0.7869    0.0000 H       1  UNL1        0.0230
     40 H           1.4631    0.5600    0.0000 H       1  UNL1        0.0230
     41 H           1.6900   -0.2869    0.0000 H       1  UNL1        0.0230
@<TRIPOS>BOND
     1     1     2    1
     2     1     7    1
     3     1     9    1
     4     1    14    1
     5     2     3    1
     6     2    15    1
     7     2    16    1
     8     3     4    1
     9     3    17    1
    10     3    18    1
    11     4     5    1
    12     4    19    1
    13     4    20    1
    14     5     6    1
    15     5    21    1
    16     5    22    1
    17     6     8    1
    18     6    11    1
    19     6    23    1
    20     7    10    1
    21     7    24    1
    22     7    25    1
    23     8    12    1
    24     8    26    1
    25     8    27    1
    26     9    28    1
    27     9    29    1
    28     9    30    1
    29    10    13    1
    30    10    31    1
    31    10    32    1
    32    11    33    1
    33    11    34    1
    34    11    35    1
    35    12    36    1
    36    12    37    1
    37    12    38    1
    38    13    39    1
    39    13    40    1
    40    13    41    1
