@<TRIPOS>MOLECULE
IMPHY016423
 28 28 0 0 0
SMALL
GASTEIGER

@<TRIPOS>ATOM
      1 O           2.8660   -2.0950    0.0000 O.3     1  UNL1       -0.3918
      2 C           2.8660    0.9050    0.0000 C.3     1  UNL1       -0.0385
      3 C           3.7320    0.4050    0.0000 C.3     1  UNL1       -0.0476
      4 C           2.0000    0.4050    0.0000 C.3     1  UNL1       -0.0476
      5 C           2.8660    1.9050    0.0000 C.3     1  UNL1       -0.0439
      6 C           3.7320   -0.5950    0.0000 C.3     1  UNL1       -0.0266
      7 C           2.0000   -0.5950    0.0000 C.3     1  UNL1       -0.0266
      8 C           2.8660   -1.0950    0.0000 C.3     1  UNL1        0.0553
      9 C           3.7320    2.4050    0.0000 C.3     1  UNL1       -0.0624
     10 C           2.0000    2.4050    0.0000 C.3     1  UNL1       -0.0624
     11 H           3.4030    1.2150    0.0000 H       1  UNL1        0.0303
     12 H           4.3426    0.2973    0.0000 H       1  UNL1        0.0269
     13 H           3.9441    0.9876    0.0000 H       1  UNL1        0.0269
     14 H           1.7880    0.9876    0.0000 H       1  UNL1        0.0269
     15 H           1.3894    0.2973    0.0000 H       1  UNL1        0.0269
     16 H           2.8660    2.5250    0.0000 H       1  UNL1        0.0298
     17 H           3.9441   -1.1776    0.0000 H       1  UNL1        0.0290
     18 H           4.3426   -0.4873    0.0000 H       1  UNL1        0.0290
     19 H           1.3894   -0.4873    0.0000 H       1  UNL1        0.0290
     20 H           1.7880   -1.1776    0.0000 H       1  UNL1        0.0290
     21 H           3.4030   -1.4050    0.0000 H       1  UNL1        0.0593
     22 H           4.0420    1.8681    0.0000 H       1  UNL1        0.0232
     23 H           4.2690    2.7150    0.0000 H       1  UNL1        0.0232
     24 H           3.4220    2.9419    0.0000 H       1  UNL1        0.0232
     25 H           2.3100    2.9419    0.0000 H       1  UNL1        0.0232
     26 H           1.4631    2.7150    0.0000 H       1  UNL1        0.0232
     27 H           1.6900    1.8681    0.0000 H       1  UNL1        0.0232
     28 H           2.3291   -2.4050    0.0000 H       1  UNL1        0.2098
@<TRIPOS>BOND
     1     1     8    1
     2     1    28    1
     3     2     3    1
     4     2     4    1
     5     2     5    1
     6     2    11    1
     7     3     6    1
     8     3    12    1
     9     3    13    1
    10     4     7    1
    11     4    14    1
    12     4    15    1
    13     5     9    1
    14     5    10    1
    15     5    16    1
    16     6     8    1
    17     6    17    1
    18     6    18    1
    19     7     8    1
    20     7    19    1
    21     7    20    1
    22     8    21    1
    23     9    22    1
    24     9    23    1
    25     9    24    1
    26    10    25    1
    27    10    26    1
    28    10    27    1
