@<TRIPOS>MOLECULE
IMPHY011515
 19 19 0 0 0
SMALL
GASTEIGER

@<TRIPOS>ATOM
      1 O           2.8660   -2.3100    0.0000 O.3     1  UNL1       -0.4951
      2 O           3.7320    2.1900    0.0000 O.3     1  UNL1       -0.4771
      3 O           2.0000    2.1900    0.0000 O.2     1  UNL1       -0.2451
      4 C           2.8660    0.6900    0.0000 C.ar    1  UNL1        0.0591
      5 C           2.8660   -1.3100    0.0000 C.ar    1  UNL1        0.1201
      6 C           3.7320    0.1900    0.0000 C.ar    1  UNL1       -0.0443
      7 C           2.0000    0.1900    0.0000 C.ar    1  UNL1       -0.0443
      8 C           3.7320   -0.8100    0.0000 C.ar    1  UNL1       -0.0192
      9 C           2.0000   -0.8100    0.0000 C.ar    1  UNL1       -0.0192
     10 C           2.8660    1.6900    0.0000 C.2     1  UNL1        0.3368
     11 C           2.0000   -2.8100    0.0000 C.3     1  UNL1        0.0788
     12 H           4.2690    0.5000    0.0000 H       1  UNL1        0.0627
     13 H           1.4631    0.5000    0.0000 H       1  UNL1        0.0627
     14 H           4.2690   -1.1200    0.0000 H       1  UNL1        0.0654
     15 H           1.4631   -1.1200    0.0000 H       1  UNL1        0.0654
     16 H           1.6900   -2.2731    0.0000 H       1  UNL1        0.0660
     17 H           1.4631   -3.1200    0.0000 H       1  UNL1        0.0660
     18 H           2.3100   -3.3469    0.0000 H       1  UNL1        0.0660
     19 H           3.7320    2.8100    0.0000 H       1  UNL1        0.2954
@<TRIPOS>BOND
     1     1     5    1
     2     1    11    1
     3     2    10    1
     4     2    19    1
     5     3    10    2
     6     4     6   ar
     7     4     7   ar
     8     4    10    1
     9     5     8   ar
    10     5     9   ar
    11     6     8   ar
    12     6    12    1
    13     7     9   ar
    14     7    13    1
    15     8    14    1
    16     9    15    1
    17    11    16    1
    18    11    17    1
    19    11    18    1
