@<TRIPOS>MOLECULE
IMPHY006430
 71 75 0 0 0
SMALL
GASTEIGER

@<TRIPOS>ATOM
      1 O           4.6497   -4.9268    0.0000 O.3     1  UNL1       -0.5030
      2 O           2.8680   -1.8680    0.0000 O.3     1  UNL1       -0.4913
      3 O           2.8680   -3.9164    0.0000 O.3     1  UNL1       -0.4885
      4 O           8.1825    4.2257    0.0000 O.2     1  UNL1       -0.4913
      5 O           6.4047    5.2430    0.0000 O.2     1  UNL1       -0.2840
      6 N           7.2641   -2.3922    0.0000 N.3     1  UNL1       -0.2948
      7 N           5.5442    0.6704    0.0000 N.pl3   1  UNL1       -0.3463
      8 C           7.2800   -0.3229    0.0000 C.3     1  UNL1       -0.0302
      9 C           8.1821   -0.8438    0.0000 C.3     1  UNL1       -0.0253
     10 C           6.3981   -1.8922    0.0000 C.3     1  UNL1        0.0364
     11 C           6.3820   -0.8507    0.0000 C.3     1  UNL1       -0.0297
     12 C           8.1741   -1.8854    0.0000 C.3     1  UNL1        0.0026
     13 C           7.2762    0.6771    0.0000 C.3     1  UNL1       -0.0111
     14 C           7.2641   -3.3922    0.0000 C.3     1  UNL1        0.0036
     15 C           5.5320   -2.3922    0.0000 C.ar    1  UNL1       -0.0199
     16 C           9.0501   -0.3471    0.0000 C.3     1  UNL1       -0.0516
     17 C           6.3981   -3.8922    0.0000 C.3     1  UNL1       -0.0110
     18 C           5.5320   -3.3922    0.0000 C.ar    1  UNL1        0.0038
     19 C           6.4082    1.1737    0.0000 C.2     1  UNL1        0.0118
     20 C           4.6381   -1.8575    0.0000 C.ar    1  UNL1       -0.0111
     21 C           9.9142   -0.8504    0.0000 C.3     1  UNL1       -0.0650
     22 C           4.6381   -3.9269    0.0000 C.ar    1  UNL1        0.1658
     23 C           6.4044    2.1737    0.0000 C.2     1  UNL1       -0.0014
     24 C           3.7320   -2.3714    0.0000 C.ar    1  UNL1        0.1655
     25 C           3.7320   -3.4130    0.0000 C.ar    1  UNL1        0.2036
     26 C           4.6762    1.1670    0.0000 C.3     1  UNL1        0.0129
     27 C           5.5364    2.6704    0.0000 C.2     1  UNL1       -0.0335
     28 C           4.6724    2.1670    0.0000 C.3     1  UNL1       -0.0114
     29 C           7.3124    2.6840    0.0000 C.2     1  UNL1       -0.0073
     30 C           5.5164    3.7118    0.0000 C.2     1  UNL1       -0.0074
     31 C           7.3164    3.7257    0.0000 C.2     1  UNL1        0.1671
     32 C           6.4124    4.2430    0.0000 C.2     1  UNL1        0.2205
     33 C           2.8718   -0.8681    0.0000 C.3     1  UNL1        0.0790
     34 C           2.0000   -3.4197    0.0000 C.3     1  UNL1        0.0791
     35 C           8.1825    5.2257    0.0000 C.3     1  UNL1        0.0790
     36 H           6.7413   -0.0160    0.0000 H       1  UNL1        0.0308
     37 H           8.7173   -1.1568    0.0000 H       1  UNL1        0.0316
     38 H           7.1309   -1.4615    0.0000 H       1  UNL1        0.0512
     39 H           6.1640   -0.2703    0.0000 H       1  UNL1        0.0286
     40 H           5.7729   -0.9662    0.0000 H       1  UNL1        0.0286
     41 H           8.3786   -2.4706    0.0000 H       1  UNL1        0.0429
     42 H           8.7858   -1.7840    0.0000 H       1  UNL1        0.0429
     43 H           7.8872    0.5717    0.0000 H       1  UNL1        0.0328
     44 H           7.4860    1.2605    0.0000 H       1  UNL1        0.0328
     45 H           7.4762   -3.9748    0.0000 H       1  UNL1        0.0430
     46 H           7.8747   -3.2845    0.0000 H       1  UNL1        0.0430
     47 H           9.4504    0.1263    0.0000 H       1  UNL1        0.0266
     48 H           8.6534    0.1294    0.0000 H       1  UNL1        0.0266
     49 H           5.9995   -4.3672    0.0000 H       1  UNL1        0.0327
     50 H           6.7966   -4.3672    0.0000 H       1  UNL1        0.0327
     51 H           4.6453   -1.2376    0.0000 H       1  UNL1        0.0659
     52 H           9.6021   -1.3862    0.0000 H       1  UNL1        0.0230
     53 H          10.4499   -1.1625    0.0000 H       1  UNL1        0.0230
     54 H          10.2262   -0.3147    0.0000 H       1  UNL1        0.0230
     55 H           5.5466    0.0504    0.0000 H       1  UNL1        0.1458
     56 H           4.0652    1.2723    0.0000 H       1  UNL1        0.0464
     57 H           4.4664    0.5836    0.0000 H       1  UNL1        0.0464
     58 H           4.4581    2.7488    0.0000 H       1  UNL1        0.0328
     59 H           4.0622    2.0570    0.0000 H       1  UNL1        0.0328
     60 H           7.8470    2.3699    0.0000 H       1  UNL1        0.0662
     61 H           4.1164   -5.2430    0.0000 H       1  UNL1        0.2923
     62 H           4.9747    4.0135    0.0000 H       1  UNL1        0.0660
     63 H           3.4918   -0.8704    0.0000 H       1  UNL1        0.0660
     64 H           2.8742   -0.2481    0.0000 H       1  UNL1        0.0660
     65 H           2.2518   -0.8657    0.0000 H       1  UNL1        0.0660
     66 H           2.3079   -2.8816    0.0000 H       1  UNL1        0.0660
     67 H           1.4619   -3.1118    0.0000 H       1  UNL1        0.0660
     68 H           1.6921   -3.9578    0.0000 H       1  UNL1        0.0660
     69 H           8.8025    5.2257    0.0000 H       1  UNL1        0.0660
     70 H           8.1825    5.8457    0.0000 H       1  UNL1        0.0660
     71 H           7.5625    5.2257    0.0000 H       1  UNL1        0.0660
@<TRIPOS>BOND
     1     1    22    1
     2     1    61    1
     3     2    24    1
     4     2    33    1
     5     3    25    1
     6     3    34    1
     7     4    31    1
     8     4    35    1
     9     5    32    2
    10     6    10    1
    11     6    12    1
    12     6    14    1
    13     7    19    1
    14     7    26    1
    15     7    55    1
    16     8     9    1
    17     8    11    1
    18     8    13    1
    19     8    36    1
    20     9    12    1
    21     9    16    1
    22     9    37    1
    23    10    11    1
    24    10    15    1
    25    10    38    1
    26    11    39    1
    27    11    40    1
    28    12    41    1
    29    12    42    1
    30    13    19    1
    31    13    43    1
    32    13    44    1
    33    14    17    1
    34    14    45    1
    35    14    46    1
    36    15    18   ar
    37    15    20   ar
    38    16    21    1
    39    16    47    1
    40    16    48    1
    41    17    18    1
    42    17    49    1
    43    17    50    1
    44    18    22   ar
    45    19    23    2
    46    20    24   ar
    47    20    51    1
    48    21    52    1
    49    21    53    1
    50    21    54    1
    51    22    25   ar
    52    23    27    1
    53    23    29    1
    54    24    25   ar
    55    26    28    1
    56    26    56    1
    57    26    57    1
    58    27    28    1
    59    27    30    2
    60    28    58    1
    61    28    59    1
    62    29    31    2
    63    29    60    1
    64    30    32    1
    65    30    62    1
    66    31    32    1
    67    33    63    1
    68    33    64    1
    69    33    65    1
    70    34    66    1
    71    34    67    1
    72    34    68    1
    73    35    69    1
    74    35    70    1
    75    35    71    1
