@<TRIPOS>MOLECULE
IMPHY008219
 65 66 0 0 0
SMALL
GASTEIGER

@<TRIPOS>ATOM
      1 O           6.4103   -1.1038    0.0000 O.3     1  UNL1       -0.4535
      2 O           4.5981   -2.2990    0.0000 O.3     1  UNL1       -0.4545
      3 O           2.9889   -0.1299    0.0000 O.3     1  UNL1       -0.3851
      4 O           4.5981    1.7010    0.0000 O.3     1  UNL1       -0.4527
      5 O           4.7320    0.2011    0.0000 O.2     1  UNL1       -0.2932
      6 O           7.9939   -0.2990    0.0000 O.2     1  UNL1       -0.2453
      7 O           6.3301   -2.2990    0.0000 O.2     1  UNL1       -0.2505
      8 O           6.0981    2.5670    0.0000 O.2     1  UNL1       -0.2505
      9 C           5.4641   -0.7990    0.0000 C.3     1  UNL1        0.1535
     10 C           4.5981   -1.2990    0.0000 C.3     1  UNL1        0.1685
     11 C           5.4641    0.2010    0.0000 C.3     1  UNL1        0.0750
     12 C           3.7320   -0.7990    0.0000 C.3     1  UNL1        0.1035
     13 C           4.5981    0.7010    0.0000 C.3     1  UNL1        0.1711
     14 C           2.8660   -1.2990    0.0000 C.3     1  UNL1       -0.0206
     15 C           2.0000   -0.7990    0.0000 C.3     1  UNL1       -0.0497
     16 C           2.8660    0.7010    0.0000 C.3     1  UNL1        0.0184
     17 C           6.4103    0.5057    0.0000 C.2     1  UNL1        0.0402
     18 C           2.0000    0.2010    0.0000 C.3     1  UNL1       -0.0435
     19 C           3.7320    0.2010    0.0000 C.2     1  UNL1        0.1771
     20 C           4.6592   -0.4244    0.0000 C.3     1  UNL1       -0.0325
     21 C           6.9939   -0.2990    0.0000 C.2     1  UNL1        0.3355
     22 C           2.8660    1.7010    0.0000 C.3     1  UNL1       -0.0556
     23 C           7.1546    1.1735    0.0000 C.2     1  UNL1       -0.0882
     24 C           5.4641   -2.7990    0.0000 C.2     1  UNL1        0.3101
     25 C           5.0981    2.5670    0.0000 C.2     1  UNL1        0.3103
     26 C           5.4641   -3.7990    0.0000 C.3     1  UNL1        0.0508
     27 C           4.5981    3.4330    0.0000 C.3     1  UNL1        0.0509
     28 C           6.3301   -4.2990    0.0000 C.3     1  UNL1       -0.0525
     29 C           4.5981   -4.2990    0.0000 C.3     1  UNL1       -0.0525
     30 C           5.0981    4.2990    0.0000 C.3     1  UNL1       -0.0525
     31 C           3.5981    3.4330    0.0000 C.3     1  UNL1       -0.0525
     32 H           5.5540   -1.6443    0.0000 H       1  UNL1        0.0780
     33 H           5.1350   -1.6090    0.0000 H       1  UNL1        0.0801
     34 H           5.5540    1.0462    0.0000 H       1  UNL1        0.0429
     35 H           5.1350    1.0110    0.0000 H       1  UNL1        0.0822
     36 H           2.4675   -1.7740    0.0000 H       1  UNL1        0.0294
     37 H           3.2646   -1.7740    0.0000 H       1  UNL1        0.0294
     38 H           1.3894   -0.6914    0.0000 H       1  UNL1        0.0266
     39 H           1.7880   -1.3816    0.0000 H       1  UNL1        0.0266
     40 H           3.4030    1.0110    0.0000 H       1  UNL1        0.0376
     41 H           1.7880    0.7836    0.0000 H       1  UNL1        0.0272
     42 H           1.3894    0.0933    0.0000 H       1  UNL1        0.0272
     43 H           4.8915   -0.9993    0.0000 H       1  UNL1        0.0258
     44 H           5.2341   -0.1922    0.0000 H       1  UNL1        0.0258
     45 H           4.4270    0.1504    0.0000 H       1  UNL1        0.0258
     46 H           2.3992   -0.3215    0.0000 H       1  UNL1        0.2103
     47 H           3.4860    1.7010    0.0000 H       1  UNL1        0.0236
     48 H           2.8660    2.3210    0.0000 H       1  UNL1        0.0236
     49 H           2.2460    1.7010    0.0000 H       1  UNL1        0.0236
     50 H           7.7440    0.9809    0.0000 H       1  UNL1        0.0540
     51 H           7.0268    1.7802    0.0000 H       1  UNL1        0.0540
     52 H           5.4641   -4.4190    0.0000 H       1  UNL1        0.0408
     53 H           4.2881    3.9700    0.0000 H       1  UNL1        0.0408
     54 H           6.0201   -4.8360    0.0000 H       1  UNL1        0.0237
     55 H           6.8671   -4.6090    0.0000 H       1  UNL1        0.0237
     56 H           6.6401   -3.7621    0.0000 H       1  UNL1        0.0237
     57 H           4.2881   -3.7621    0.0000 H       1  UNL1        0.0237
     58 H           4.0611   -4.6090    0.0000 H       1  UNL1        0.0237
     59 H           4.9081   -4.8360    0.0000 H       1  UNL1        0.0237
     60 H           5.6350    3.9890    0.0000 H       1  UNL1        0.0237
     61 H           5.4081    4.8360    0.0000 H       1  UNL1        0.0237
     62 H           3.5981    4.0530    0.0000 H       1  UNL1        0.0237
     63 H           2.9781    3.4330    0.0000 H       1  UNL1        0.0237
     64 H           3.5981    2.8130    0.0000 H       1  UNL1        0.0237
     65 H           4.5611    4.6090    0.0000 H       1  UNL1        0.0237
@<TRIPOS>BOND
     1     1     9    1
     2     1    21    1
     3    10     2    1
     4     2    24    1
     5    12     3    1
     6     3    46    1
     7    13     4    1
     8     4    25    1
     9     5    19    2
    10     6    21    2
    11     7    24    2
    12     8    25    2
    13     9    10    1
    14     9    11    1
    15     9    32    1
    16    10    12    1
    17    10    33    1
    18    11    13    1
    19    11    17    1
    20    11    34    1
    21    12    14    1
    22    12    20    1
    23    13    19    1
    24    13    35    1
    25    14    15    1
    26    14    36    1
    27    14    37    1
    28    15    18    1
    29    15    38    1
    30    15    39    1
    31    16    18    1
    32    16    19    1
    33    16    22    1
    34    16    40    1
    35    17    21    1
    36    17    23    2
    37    18    41    1
    38    18    42    1
    39    20    43    1
    40    20    44    1
    41    20    45    1
    42    22    47    1
    43    22    48    1
    44    22    49    1
    45    23    50    1
    46    23    51    1
    47    24    26    1
    48    25    27    1
    49    26    28    1
    50    26    29    1
    51    26    52    1
    52    27    30    1
    53    27    31    1
    54    27    53    1
    55    28    54    1
    56    28    55    1
    57    28    56    1
    58    29    57    1
    59    29    58    1
    60    29    59    1
    61    30    60    1
    62    30    61    1
    63    30    65    1
    64    31    62    1
    65    31    63    1
    66    31    64    1
