@<TRIPOS>MOLECULE
IMPHY012105
 13 13 0 0 0
SMALL
GASTEIGER

@<TRIPOS>ATOM
      1 C           2.8090    0.7694    0.0000 C.3     1  UNL1       -0.0462
      2 C           2.0000    0.1816    0.0000 C.3     1  UNL1       -0.0345
      3 C           3.6180    0.1816    0.0000 C.3     1  UNL1       -0.0345
      4 C           2.3090   -0.7694    0.0000 C.2     1  UNL1       -0.0879
      5 C           3.3090   -0.7694    0.0000 C.2     1  UNL1       -0.0879
      6 H           3.2239    1.2302    0.0000 H       1  UNL1        0.0271
      7 H           2.3942    1.2302    0.0000 H       1  UNL1        0.0271
      8 H           1.6900    0.7186    0.0000 H       1  UNL1        0.0307
      9 H           1.4336   -0.0705    0.0000 H       1  UNL1        0.0307
     10 H           4.1844   -0.0705    0.0000 H       1  UNL1        0.0307
     11 H           3.9280    0.7186    0.0000 H       1  UNL1        0.0307
     12 H           1.9446   -1.2710    0.0000 H       1  UNL1        0.0569
     13 H           3.6734   -1.2710    0.0000 H       1  UNL1        0.0569
@<TRIPOS>BOND
     1     1     2    1
     2     1     3    1
     3     1     6    1
     4     1     7    1
     5     2     4    1
     6     2     8    1
     7     2     9    1
     8     3     5    1
     9     3    10    1
    10     3    11    1
    11     4     5    2
    12     4    12    1
    13     5    13    1
