@<TRIPOS>MOLECULE
IMPHY010832
 62 67 0 0 0
SMALL
GASTEIGER

@<TRIPOS>ATOM
      1 O           6.3962    2.7510    0.0000 O.3     1  UNL1       -0.4822
      2 O           4.6523   -1.2559    0.0000 O.3     1  UNL1       -0.4828
      3 O           2.9042    1.7856    0.0000 O.3     1  UNL1       -0.5052
      4 O           6.3683    1.7856    0.0000 O.3     1  UNL1       -0.5059
      5 O           6.3846    5.8202    0.0000 O.2     1  UNL1       -0.2917
      6 O           2.9042    2.7856    0.0000 O.3     1  UNL1       -0.5059
      7 O           2.0000    0.2888    0.0000 O.2     1  UNL1       -0.2917
      8 O           4.6362    5.7857    0.0000 O.3     1  UNL1       -0.5058
      9 O          10.7586    1.2515    0.0000 O.3     1  UNL1       -0.5068
     10 O           3.7696   -5.7836    0.0000 O.3     1  UNL1       -0.5068
     11 C           7.3022    3.2648    0.0000 C.3     1  UNL1        0.1322
     12 C           5.5022    3.2856    0.0000 C.ar    1  UNL1        0.1468
     13 C           3.7542   -1.7836    0.0000 C.3     1  UNL1        0.1322
     14 C           7.3022    4.3065    0.0000 C.3     1  UNL1        0.0520
     15 C           4.6362    2.7856    0.0000 C.ar    1  UNL1        0.0731
     16 C           4.6362    1.7856    0.0000 C.ar    1  UNL1        0.0729
     17 C           5.5022    4.2857    0.0000 C.ar    1  UNL1        0.1013
     18 C           2.8522   -1.2628    0.0000 C.3     1  UNL1        0.0520
     19 C           3.7702    0.2856    0.0000 C.ar    1  UNL1        0.1013
     20 C           4.6362   -0.2144    0.0000 C.ar    1  UNL1        0.1389
     21 C           6.3962    4.8203    0.0000 C.2     1  UNL1        0.1740
     22 C           3.7702    1.2856    0.0000 C.ar    1  UNL1        0.1423
     23 C           2.8602   -0.2212    0.0000 C.2     1  UNL1        0.1740
     24 C           8.1663    2.7615    0.0000 C.ar    1  UNL1       -0.0067
     25 C           5.5022    1.2856    0.0000 C.ar    1  UNL1        0.1318
     26 C           3.7702    3.2856    0.0000 C.ar    1  UNL1        0.1318
     27 C           3.7581   -2.7836    0.0000 C.ar    1  UNL1       -0.0067
     28 C           5.5022    0.2856    0.0000 C.ar    1  UNL1        0.0231
     29 C           4.6362    4.7857    0.0000 C.ar    1  UNL1        0.1344
     30 C           3.7702    4.2857    0.0000 C.ar    1  UNL1        0.0229
     31 C           8.1625    1.7615    0.0000 C.ar    1  UNL1       -0.0516
     32 C           9.0343    3.2582    0.0000 C.ar    1  UNL1       -0.0516
     33 C           2.8940   -3.2869    0.0000 C.ar    1  UNL1       -0.0516
     34 C           4.6260   -3.2803    0.0000 C.ar    1  UNL1       -0.0516
     35 C           9.0266    1.2582    0.0000 C.ar    1  UNL1       -0.0198
     36 C           9.8984    2.7548    0.0000 C.ar    1  UNL1       -0.0198
     37 C           2.8978   -4.2869    0.0000 C.ar    1  UNL1       -0.0198
     38 C           4.6299   -4.2802    0.0000 C.ar    1  UNL1       -0.0198
     39 C           9.8945    1.7548    0.0000 C.ar    1  UNL1        0.1169
     40 C           3.7658   -4.7836    0.0000 C.ar    1  UNL1        0.1169
     41 H           7.8398    3.5738    0.0000 H       1  UNL1        0.0789
     42 H           4.2930   -2.0905    0.0000 H       1  UNL1        0.0789
     43 H           7.9131    4.2004    0.0000 H       1  UNL1        0.0385
     44 H           7.5113    4.8902    0.0000 H       1  UNL1        0.0385
     45 H           2.2421   -1.1520    0.0000 H       1  UNL1        0.0385
     46 H           2.6386   -1.8449    0.0000 H       1  UNL1        0.0385
     47 H           6.0392   -0.0244    0.0000 H       1  UNL1        0.0691
     48 H           3.2332    4.5956    0.0000 H       1  UNL1        0.0691
     49 H           7.6244    1.4536    0.0000 H       1  UNL1        0.0623
     50 H           9.0367    3.8782    0.0000 H       1  UNL1        0.0623
     51 H           2.3559   -2.9790    0.0000 H       1  UNL1        0.0623
     52 H           5.1618   -2.9682    0.0000 H       1  UNL1        0.0623
     53 H           2.3672    1.4756    0.0000 H       1  UNL1        0.2922
     54 H           9.0242    0.6382    0.0000 H       1  UNL1        0.0654
     55 H          10.4365    3.0628    0.0000 H       1  UNL1        0.0654
     56 H           6.9052    1.4756    0.0000 H       1  UNL1        0.2922
     57 H           2.3621   -4.5990    0.0000 H       1  UNL1        0.0654
     58 H           5.1680   -4.5882    0.0000 H       1  UNL1        0.0654
     59 H           2.3672    3.0956    0.0000 H       1  UNL1        0.2922
     60 H           4.0993    6.0956    0.0000 H       1  UNL1        0.2922
     61 H          11.2967    1.5594    0.0000 H       1  UNL1        0.2921
     62 H           3.2339   -6.0956    0.0000 H       1  UNL1        0.2921
@<TRIPOS>BOND
     1     1    11    1
     2     1    12    1
     3     2    13    1
     4     2    20    1
     5     3    22    1
     6     3    53    1
     7     4    25    1
     8     4    56    1
     9     5    21    2
    10     6    26    1
    11     6    59    1
    12     7    23    2
    13     8    29    1
    14     8    60    1
    15     9    39    1
    16     9    61    1
    17    10    40    1
    18    10    62    1
    19    11    14    1
    20    11    24    1
    21    11    41    1
    22    12    15   ar
    23    12    17   ar
    24    13    18    1
    25    13    27    1
    26    13    42    1
    27    14    21    1
    28    14    43    1
    29    14    44    1
    30    15    16    1
    31    15    26   ar
    32    16    22   ar
    33    16    25   ar
    34    17    21    1
    35    17    29   ar
    36    18    23    1
    37    18    45    1
    38    18    46    1
    39    19    20   ar
    40    19    22   ar
    41    19    23    1
    42    20    28   ar
    43    24    31   ar
    44    24    32   ar
    45    25    28   ar
    46    26    30   ar
    47    27    33   ar
    48    27    34   ar
    49    28    47    1
    50    29    30   ar
    51    30    48    1
    52    31    35   ar
    53    31    49    1
    54    32    36   ar
    55    32    50    1
    56    33    37   ar
    57    33    51    1
    58    34    38   ar
    59    34    52    1
    60    35    39   ar
    61    35    54    1
    62    36    39   ar
    63    36    55    1
    64    37    40   ar
    65    37    57    1
    66    38    40   ar
    67    38    58    1
