@<TRIPOS>MOLECULE
IMPHY008314
 67 70 0 0 0
SMALL
GASTEIGER

@<TRIPOS>ATOM
      1 O           4.0115    1.0630    0.0000 O.3     1  UNL1       -0.4862
      2 O           8.1790    2.2385    0.0000 O.3     1  UNL1       -0.4530
      3 O           4.0495    3.3524    0.0000 O.3     1  UNL1       -0.4489
      4 O           5.4433    4.1571    0.0000 O.3     1  UNL1       -0.4525
      5 O           3.6154   -0.0541    0.0000 O.2     1  UNL1       -0.2837
      6 O           2.8077   -0.6435    0.0000 O.3     1  UNL1       -0.4624
      7 O           3.8290   -2.0426    0.0000 O.2     1  UNL1       -0.2417
      8 O           4.9990   -3.3309    0.0000 O.3     1  UNL1       -0.4649
      9 O           6.6085   -2.6910    0.0000 O.2     1  UNL1       -0.2456
     10 O           9.5778    1.2170    0.0000 O.2     1  UNL1       -0.2453
     11 C           5.3375    0.1309    0.0000 C.3     1  UNL1        0.1241
     12 C           8.1575    0.4885    0.0000 C.3     1  UNL1        0.0005
     13 C           7.8828   -0.5772    0.0000 C.3     1  UNL1       -0.0339
     14 C           5.6525    1.1853    0.0000 C.ar    1  UNL1        0.0260
     15 C           7.5892    1.4309    0.0000 C.3     1  UNL1        0.1317
     16 C           6.9297   -1.1274    0.0000 C.3     1  UNL1       -0.0269
     17 C           5.8695   -0.8325    0.0000 C.2     1  UNL1       -0.0411
     18 C           6.5186    1.6853    0.0000 C.ar    1  UNL1        0.0047
     19 C           4.3436    0.1261    0.0000 C.3     1  UNL1        0.1105
     20 C           4.7865    1.6853    0.0000 C.ar    1  UNL1        0.1707
     21 C           9.1470    0.6331    0.0000 C.3     1  UNL1       -0.0585
     22 C           4.5298   -0.4588    0.0000 C.2     1  UNL1        0.2570
     23 C           8.6790   -1.1821    0.0000 C.3     1  UNL1       -0.0618
     24 C           6.5186    2.6853    0.0000 C.ar    1  UNL1       -0.0089
     25 C           4.7865    2.6853    0.0000 C.ar    1  UNL1        0.2079
     26 C           5.6525    3.1853    0.0000 C.ar    1  UNL1        0.1703
     27 C           5.2495   -1.6171    0.0000 C.2     1  UNL1        0.0231
     28 C           3.7222   -1.0483    0.0000 C.2     1  UNL1        0.3761
     29 C           4.4546    4.2602    0.0000 C.3     1  UNL1        0.2334
     30 C           5.6190   -2.5463    0.0000 C.2     1  UNL1        0.3317
     31 C           9.1732    2.1316    0.0000 C.2     1  UNL1        0.3351
     32 C           9.7630    2.9392    0.0000 C.2     1  UNL1        0.0294
     33 C           2.0000   -1.2331    0.0000 C.3     1  UNL1        0.0821
     34 C           9.3584    3.8537    0.0000 C.3     1  UNL1       -0.0333
     35 C          10.7572    2.8322    0.0000 C.2     1  UNL1       -0.0774
     36 C           5.3684   -4.2602    0.0000 C.3     1  UNL1        0.0820
     37 C          11.1618    1.9177    0.0000 C.3     1  UNL1       -0.0461
     38 H           8.4224    1.0490    0.0000 H       1  UNL1        0.0340
     39 H           8.4684   -0.3737    0.0000 H       1  UNL1        0.0305
     40 H           8.2086    1.4036    0.0000 H       1  UNL1        0.0788
     41 H           6.6164   -1.6624    0.0000 H       1  UNL1        0.0313
     42 H           7.3668   -1.5672    0.0000 H       1  UNL1        0.0313
     43 H           3.7397   -0.0144    0.0000 H       1  UNL1        0.0713
     44 H           4.4158   -0.4897    0.0000 H       1  UNL1        0.0713
     45 H           9.2367    0.0197    0.0000 H       1  UNL1        0.0234
     46 H           9.7604    0.7228    0.0000 H       1  UNL1        0.0234
     47 H           9.0573    1.2466    0.0000 H       1  UNL1        0.0234
     48 H           8.3039   -1.6758    0.0000 H       1  UNL1        0.0233
     49 H           9.1727   -1.5572    0.0000 H       1  UNL1        0.0233
     50 H           9.0541   -0.6885    0.0000 H       1  UNL1        0.0233
     51 H           7.0555    2.9953    0.0000 H       1  UNL1        0.0659
     52 H           4.6734   -1.8461    0.0000 H       1  UNL1        0.0689
     53 H           4.5833    4.8666    0.0000 H       1  UNL1        0.1166
     54 H           3.8650    4.4519    0.0000 H       1  UNL1        0.1166
     55 H           1.6344   -0.7324    0.0000 H       1  UNL1        0.0661
     56 H           1.4992   -1.5987    0.0000 H       1  UNL1        0.0661
     57 H           2.3656   -1.7339    0.0000 H       1  UNL1        0.0661
     58 H           9.9254    4.1045    0.0000 H       1  UNL1        0.0280
     59 H           9.1076    4.4207    0.0000 H       1  UNL1        0.0280
     60 H           8.7914    3.6029    0.0000 H       1  UNL1        0.0280
     61 H          11.1229    3.3330    0.0000 H       1  UNL1        0.0574
     62 H           4.7923   -4.4892    0.0000 H       1  UNL1        0.0661
     63 H           5.5975   -4.8363    0.0000 H       1  UNL1        0.0661
     64 H           5.9446   -4.0311    0.0000 H       1  UNL1        0.0661
     65 H          10.5948    1.6669    0.0000 H       1  UNL1        0.0272
     66 H          11.4126    1.3507    0.0000 H       1  UNL1        0.0272
     67 H          11.7288    2.1685    0.0000 H       1  UNL1        0.0272
@<TRIPOS>BOND
     1     1    19    1
     2     1    20    1
     3    15     2    1
     4     2    31    1
     5     3    25    1
     6     3    29    1
     7     4    26    1
     8     4    29    1
     9     5    22    2
    10     6    28    1
    11     6    33    1
    12     7    28    2
    13     8    30    1
    14     8    36    1
    15     9    30    2
    16    10    31    2
    17    11    14    1
    18    11    17    1
    19    11    19    1
    20    11    22    1
    21    12    13    1
    22    12    15    1
    23    12    21    1
    24    12    38    1
    25    13    16    1
    26    13    23    1
    27    13    39    1
    28    14    18   ar
    29    14    20   ar
    30    15    18    1
    31    15    40    1
    32    16    17    1
    33    16    41    1
    34    16    42    1
    35    17    27    2
    36    18    24   ar
    37    19    43    1
    38    19    44    1
    39    20    25   ar
    40    21    45    1
    41    21    46    1
    42    21    47    1
    43    22    28    1
    44    23    48    1
    45    23    49    1
    46    23    50    1
    47    24    26   ar
    48    24    51    1
    49    25    26   ar
    50    27    30    1
    51    27    52    1
    52    29    53    1
    53    29    54    1
    54    31    32    1
    55    32    34    1
    56    32    35    2
    57    33    55    1
    58    33    56    1
    59    33    57    1
    60    34    58    1
    61    34    59    1
    62    34    60    1
    63    35    37    1
    64    35    61    1
    65    36    62    1
    66    36    63    1
    67    36    64    1
    68    37    65    1
    69    37    66    1
    70    37    67    1
