@<TRIPOS>MOLECULE
IMPHY003125
 84 91 0 0 0
SMALL
GASTEIGER

@<TRIPOS>ATOM
      1 O           7.1742    2.3520    0.0000 O.3     1  UNL1       -0.4475
      2 O           7.2704    1.2937    0.0000 O.3     1  UNL1       -0.4885
      3 O           5.9022   -0.0534    0.0000 O.3     1  UNL1       -0.4913
      4 O           7.3060    3.4410    0.0000 O.3     1  UNL1       -0.4487
      5 O           4.9637   -3.1289    0.0000 O.3     1  UNL1       -0.4523
      6 O           8.6999    4.2458    0.0000 O.3     1  UNL1       -0.4488
      7 O           3.0190   -3.9487    0.0000 O.3     1  UNL1       -0.4914
      8 O          10.6411    3.2739    0.0000 O.3     1  UNL1       -0.4907
      9 N           2.9992    2.0832    0.0000 N.3     1  UNL1       -0.2978
     10 N           9.7910   -0.2953    0.0000 N.ar    1  UNL1       -0.2588
     11 C           3.4937    1.2128    0.0000 C.3     1  UNL1        0.0398
     12 C           4.1960    1.9847    0.0000 C.ar    1  UNL1       -0.0196
     13 C           3.4240    2.9896    0.0000 C.3     1  UNL1        0.0033
     14 C           5.1228    2.4644    0.0000 C.ar    1  UNL1        0.0047
     15 C           4.4093    3.1665    0.0000 C.3     1  UNL1       -0.0109
     16 C           3.1034    0.2450    0.0000 C.3     1  UNL1       -0.0078
     17 C           6.1586    2.5922    0.0000 C.ar    1  UNL1        0.1772
     18 C           4.6212    1.0785    0.0000 C.ar    1  UNL1       -0.0111
     19 C           2.0000    2.0440    0.0000 C.3     1  UNL1       -0.0122
     20 C           3.0737   -0.7982    0.0000 C.ar    1  UNL1       -0.0419
     21 C           6.3198    1.6042    0.0000 C.ar    1  UNL1        0.2044
     22 C           5.6065    0.9019    0.0000 C.ar    1  UNL1        0.1655
     23 C           3.4083   -1.7867    0.0000 C.ar    1  UNL1       -0.0124
     24 C           2.2722   -1.3979    0.0000 C.ar    1  UNL1       -0.0548
     25 C           8.0430    1.7739    0.0000 C.ar    1  UNL1        0.1834
     26 C           8.9091    1.2739    0.0000 C.ar    1  UNL1        0.0534
     27 C           4.0656   -2.5972    0.0000 C.ar    1  UNL1        0.1701
     28 C           8.0430    2.7739    0.0000 C.ar    1  UNL1        0.2125
     29 C           2.2986   -2.3985    0.0000 C.ar    1  UNL1       -0.0160
     30 C           9.7751    1.7739    0.0000 C.ar    1  UNL1        0.0344
     31 C           3.1307   -2.9550    0.0000 C.ar    1  UNL1        0.1621
     32 C           8.8930    0.2324    0.0000 C.ar    1  UNL1        0.0570
     33 C           8.9091    3.2739    0.0000 C.ar    1  UNL1        0.2118
     34 C           9.7751    2.7739    0.0000 C.ar    1  UNL1        0.1733
     35 C           8.9182   -0.8109    0.0000 C.3     1  UNL1        0.0155
     36 C           7.4768    0.3153    0.0000 C.3     1  UNL1        0.0791
     37 C           5.2227   -0.7871    0.0000 C.3     1  UNL1        0.0790
     38 C          10.6851    1.2671    0.0000 C.ar    1  UNL1       -0.0321
     39 C           7.7111    4.3488    0.0000 C.3     1  UNL1        0.2336
     40 C           8.5792   -1.7979    0.0000 C.ar    1  UNL1       -0.0413
     41 C           5.9905   -3.3153    0.0000 C.ar    1  UNL1        0.1286
     42 C          10.6931    0.2255    0.0000 C.ar    1  UNL1        0.0286
     43 C           7.6988   -2.2735    0.0000 C.ar    1  UNL1       -0.0547
     44 C           7.9184   -2.6056    0.0000 C.ar    1  UNL1       -0.0547
     45 C           6.8356   -2.7795    0.0000 C.ar    1  UNL1       -0.0191
     46 C           7.0181   -3.1333    0.0000 C.ar    1  UNL1       -0.0191
     47 C           2.1025   -4.3488    0.0000 C.3     1  UNL1        0.0790
     48 C          10.6411    4.2739    0.0000 C.3     1  UNL1        0.0790
     49 H           3.9136    0.4738    0.0000 H       1  UNL1        0.0515
     50 H           3.4412    3.6094    0.0000 H       1  UNL1        0.0430
     51 H           2.8208    3.1328    0.0000 H       1  UNL1        0.0430
     52 H           4.9251    3.5105    0.0000 H       1  UNL1        0.0327
     53 H           4.1776    3.7416    0.0000 H       1  UNL1        0.0327
     54 H           2.6664    0.6848    0.0000 H       1  UNL1        0.0332
     55 H           3.7103    0.1182    0.0000 H       1  UNL1        0.0332
     56 H           4.2436    0.5867    0.0000 H       1  UNL1        0.0659
     57 H           1.9757    2.6636    0.0000 H       1  UNL1        0.0391
     58 H           1.3805    2.0197    0.0000 H       1  UNL1        0.0391
     59 H           2.0243    1.4245    0.0000 H       1  UNL1        0.0391
     60 H           2.8654   -2.0860    0.0000 H       1  UNL1        0.0658
     61 H           1.7142   -1.1276    0.0000 H       1  UNL1        0.0621
     62 H           1.7557   -2.6979    0.0000 H       1  UNL1        0.0655
     63 H           9.3776   -1.2271    0.0000 H       1  UNL1        0.0377
     64 H           8.3054   -0.7162    0.0000 H       1  UNL1        0.0377
     65 H           6.8701    0.1873    0.0000 H       1  UNL1        0.0660
     66 H           7.6047   -0.2914    0.0000 H       1  UNL1        0.0660
     67 H           8.0834    0.4432    0.0000 H       1  UNL1        0.0660
     68 H           4.7678   -0.3658    0.0000 H       1  UNL1        0.0660
     69 H           4.8014   -1.2420    0.0000 H       1  UNL1        0.0660
     70 H           5.6776   -1.2083    0.0000 H       1  UNL1        0.0660
     71 H          11.2184    1.5833    0.0000 H       1  UNL1        0.0640
     72 H           7.8399    4.9553    0.0000 H       1  UNL1        0.1166
     73 H           7.1215    4.5406    0.0000 H       1  UNL1        0.1166
     74 H          11.2312   -0.0824    0.0000 H       1  UNL1        0.0830
     75 H           7.3947   -1.7332    0.0000 H       1  UNL1        0.0622
     76 H           8.3214   -3.0767    0.0000 H       1  UNL1        0.0622
     77 H           6.5127   -2.2502    0.0000 H       1  UNL1        0.0654
     78 H           7.2323   -3.7152    0.0000 H       1  UNL1        0.0654
     79 H           1.8544   -3.7806    0.0000 H       1  UNL1        0.0660
     80 H           1.5343   -4.5969    0.0000 H       1  UNL1        0.0660
     81 H           2.3506   -4.9170    0.0000 H       1  UNL1        0.0660
     82 H          11.2611    4.2739    0.0000 H       1  UNL1        0.0660
     83 H          10.6411    4.8939    0.0000 H       1  UNL1        0.0660
     84 H          10.0211    4.2739    0.0000 H       1  UNL1        0.0660
@<TRIPOS>BOND
     1     1    17    1
     2     1    25    1
     3     2    21    1
     4     2    36    1
     5     3    22    1
     6     3    37    1
     7     4    28    1
     8     4    39    1
     9     5    27    1
    10     5    41    1
    11     6    33    1
    12     6    39    1
    13     7    31    1
    14     7    47    1
    15     8    34    1
    16     8    48    1
    17     9    11    1
    18     9    13    1
    19     9    19    1
    20    10    32   ar
    21    10    42   ar
    22    11    12    1
    23    11    16    1
    24    11    49    1
    25    12    14   ar
    26    12    18   ar
    27    13    15    1
    28    13    50    1
    29    13    51    1
    30    14    15    1
    31    14    17   ar
    32    15    52    1
    33    15    53    1
    34    16    20    1
    35    16    54    1
    36    16    55    1
    37    17    21   ar
    38    18    22   ar
    39    18    56    1
    40    19    57    1
    41    19    58    1
    42    19    59    1
    43    20    23   ar
    44    20    24   ar
    45    21    22   ar
    46    23    27   ar
    47    23    60    1
    48    24    29   ar
    49    24    61    1
    50    25    26   ar
    51    25    28   ar
    52    26    30   ar
    53    26    32   ar
    54    27    31   ar
    55    28    33   ar
    56    29    31   ar
    57    29    62    1
    58    30    34   ar
    59    30    38   ar
    60    32    35    1
    61    33    34   ar
    62    35    40    1
    63    35    63    1
    64    35    64    1
    65    36    65    1
    66    36    66    1
    67    36    67    1
    68    37    68    1
    69    37    69    1
    70    37    70    1
    71    38    42   ar
    72    38    71    1
    73    39    72    1
    74    39    73    1
    75    40    43   ar
    76    40    44   ar
    77    41    45   ar
    78    41    46   ar
    79    42    74    1
    80    43    45   ar
    81    43    75    1
    82    44    46   ar
    83    44    76    1
    84    45    77    1
    85    46    78    1
    86    47    79    1
    87    47    80    1
    88    47    81    1
    89    48    82    1
    90    48    83    1
    91    48    84    1
