@<TRIPOS>MOLECULE
IMPHY003067
 29 29 0 0 0
SMALL
GASTEIGER

@<TRIPOS>ATOM
      1 O           6.6791   -1.5039    0.0000 O.3     1  UNL1       -0.3866
      2 O           4.0339   -1.5550    0.0000 O.3     1  UNL1       -0.3885
      3 O           2.8090   -0.1864    0.0000 O.2     1  UNL1       -0.4674
      4 C           5.7281   -1.1948    0.0000 C.3     1  UNL1        0.0866
      5 C           4.7770   -0.8858    0.0000 C.3     1  UNL1        0.0901
      6 C           4.5691    0.0923    0.0000 C.3     1  UNL1        0.0345
      7 C           5.4190   -2.1459    0.0000 C.3     1  UNL1       -0.0339
      8 C           6.0371   -0.2438    0.0000 C.3     1  UNL1       -0.0339
      9 C           3.6180    0.4013    0.0000 C.ar    1  UNL1        0.1103
     10 C           3.3090    1.3524    0.0000 C.ar    1  UNL1       -0.0095
     11 C           2.3090    1.3524    0.0000 C.ar    1  UNL1       -0.0207
     12 C           3.8968    2.1614    0.0000 C.3     1  UNL1       -0.0365
     13 C           2.0000    0.4013    0.0000 C.ar    1  UNL1        0.0923
     14 H           4.9537   -1.7172    0.0000 H       1  UNL1        0.0626
     15 H           5.1887    0.1140    0.0000 H       1  UNL1        0.0370
     16 H           4.6554    0.7063    0.0000 H       1  UNL1        0.0370
     17 H           4.8294   -1.9543    0.0000 H       1  UNL1        0.0258
     18 H           5.2274   -2.7356    0.0000 H       1  UNL1        0.0258
     19 H           6.0087   -2.3375    0.0000 H       1  UNL1        0.0258
     20 H           6.6267   -0.4354    0.0000 H       1  UNL1        0.0258
     21 H           6.2287    0.3459    0.0000 H       1  UNL1        0.0258
     22 H           5.4474   -0.0522    0.0000 H       1  UNL1        0.0258
     23 H           7.1399   -1.0890    0.0000 H       1  UNL1        0.2102
     24 H           4.1628   -2.1614    0.0000 H       1  UNL1        0.2099
     25 H           1.9446    1.8540    0.0000 H       1  UNL1        0.0652
     26 H           4.3984    1.7970    0.0000 H       1  UNL1        0.0279
     27 H           4.2612    2.6630    0.0000 H       1  UNL1        0.0279
     28 H           3.3952    2.5258    0.0000 H       1  UNL1        0.0279
     29 H           1.4103    0.2097    0.0000 H       1  UNL1        0.1029
@<TRIPOS>BOND
     1     1     4    1
     2     1    23    1
     3     2     5    1
     4     2    24    1
     5     3     9   ar
     6     3    13   ar
     7     4     5    1
     8     4     7    1
     9     4     8    1
    10     5     6    1
    11     5    14    1
    12     6     9    1
    13     6    15    1
    14     6    16    1
    15     7    17    1
    16     7    18    1
    17     7    19    1
    18     8    20    1
    19     8    21    1
    20     8    22    1
    21     9    10   ar
    22    10    11   ar
    23    10    12    1
    24    11    13   ar
    25    11    25    1
    26    12    26    1
    27    12    27    1
    28    12    28    1
    29    13    29    1
