@<TRIPOS>MOLECULE
IMPHY002659
 20 21 0 0 0
SMALL
GASTEIGER

@<TRIPOS>ATOM
      1 O           2.8660    1.4470    0.0000 O.3     1  UNL1       -0.4945
      2 N           4.6783   -1.3577    0.0000 N.ar    1  UNL1       -0.3605
      3 C           3.7320   -0.0530    0.0000 C.ar    1  UNL1        0.0413
      4 C           3.7320   -1.0530    0.0000 C.ar    1  UNL1        0.0500
      5 C           2.8660    0.4470    0.0000 C.ar    1  UNL1        0.1292
      6 C           4.6783    0.2518    0.0000 C.ar    1  UNL1       -0.0332
      7 C           2.8660   -1.5530    0.0000 C.ar    1  UNL1       -0.0376
      8 C           5.2619   -0.5530    0.0000 C.ar    1  UNL1        0.0028
      9 C           2.0000   -0.0530    0.0000 C.ar    1  UNL1       -0.0192
     10 C           2.0000   -1.0530    0.0000 C.ar    1  UNL1       -0.0563
     11 C           2.0000    1.9470    0.0000 C.3     1  UNL1        0.0788
     12 H           4.8709    0.8411    0.0000 H       1  UNL1        0.0640
     13 H           4.8709   -1.9470    0.0000 H       1  UNL1        0.1653
     14 H           2.8660   -2.1730    0.0000 H       1  UNL1        0.0638
     15 H           5.8819   -0.5530    0.0000 H       1  UNL1        0.0807
     16 H           1.4631    0.2570    0.0000 H       1  UNL1        0.0654
     17 H           1.4631   -1.3630    0.0000 H       1  UNL1        0.0619
     18 H           2.3100    2.4840    0.0000 H       1  UNL1        0.0660
     19 H           1.4631    2.2570    0.0000 H       1  UNL1        0.0660
     20 H           1.6900    1.4101    0.0000 H       1  UNL1        0.0660
@<TRIPOS>BOND
     1     1     5    1
     2     1    11    1
     3     2     4   ar
     4     2     8   ar
     5     2    13    1
     6     3     4   ar
     7     3     5   ar
     8     3     6   ar
     9     4     7   ar
    10     5     9   ar
    11     6     8   ar
    12     6    12    1
    13     7    10   ar
    14     7    14    1
    15     8    15    1
    16     9    10   ar
    17     9    16    1
    18    10    17    1
    19    11    18    1
    20    11    19    1
    21    11    20    1
