@<TRIPOS>MOLECULE
IMPHY012971
 45 50 0 0 0
SMALL
GASTEIGER

@<TRIPOS>ATOM
      1 O           8.5149    1.3412    0.0000 O.3     1  UNL1       -0.3711
      2 O           6.2344   -0.7122    0.0000 O.3     1  UNL1       -0.3712
      3 O           8.6194   -1.6534    0.0000 O.3     1  UNL1       -0.5063
      4 O          12.1637    0.1514    0.0000 O.3     1  UNL1       -0.4526
      5 O           2.5850    0.4655    0.0000 O.3     1  UNL1       -0.4526
      6 O          12.1637   -1.4581    0.0000 O.3     1  UNL1       -0.4525
      7 O           2.5822    2.0750    0.0000 O.3     1  UNL1       -0.4526
      8 C           7.7058   -0.0601    0.0000 C.3     1  UNL1        0.0206
      9 C           7.0367    0.6830    0.0000 C.3     1  UNL1        0.0205
     10 C           8.6194    0.3466    0.0000 C.3     1  UNL1        0.0924
     11 C           6.1296    0.2764    0.0000 C.3     1  UNL1        0.0891
     12 C           7.5367    1.5491    0.0000 C.3     1  UNL1        0.0544
     13 C           7.2066   -0.9197    0.0000 C.3     1  UNL1        0.0544
     14 C           9.4854   -0.1534    0.0000 C.ar    1  UNL1        0.0266
     15 C           5.2627    0.7749    0.0000 C.ar    1  UNL1       -0.0149
     16 C           9.4854   -1.1534    0.0000 C.ar    1  UNL1        0.1262
     17 C          10.3514    0.3466    0.0000 C.ar    1  UNL1       -0.0070
     18 C           4.3976    0.2734    0.0000 C.ar    1  UNL1       -0.0105
     19 C           5.2610    1.7749    0.0000 C.ar    1  UNL1       -0.0524
     20 C          11.2175   -0.1534    0.0000 C.ar    1  UNL1        0.1668
     21 C           3.5307    0.7719    0.0000 C.ar    1  UNL1        0.1666
     22 C          10.3514   -1.6534    0.0000 C.ar    1  UNL1        0.0257
     23 C           4.3941    2.2734    0.0000 C.ar    1  UNL1       -0.0158
     24 C          11.2175   -1.1534    0.0000 C.ar    1  UNL1        0.1697
     25 C           3.5290    1.7719    0.0000 C.ar    1  UNL1        0.1662
     26 C          12.7473   -0.6534    0.0000 C.3     1  UNL1        0.2332
     27 C           2.0000    1.2692    0.0000 C.3     1  UNL1        0.2332
     28 H           8.2738   -0.6925    0.0000 H       1  UNL1        0.0356
     29 H           6.4671    1.3140    0.0000 H       1  UNL1        0.0356
     30 H           9.3323    0.8096    0.0000 H       1  UNL1        0.0651
     31 H           5.6101   -0.0620    0.0000 H       1  UNL1        0.0650
     32 H           7.7283    2.1387    0.0000 H       1  UNL1        0.0564
     33 H           6.9703    1.8012    0.0000 H       1  UNL1        0.0564
     34 H           7.0141   -1.5091    0.0000 H       1  UNL1        0.0564
     35 H           7.7725   -1.1730    0.0000 H       1  UNL1        0.0564
     36 H          10.3514    0.9666    0.0000 H       1  UNL1        0.0660
     37 H           4.3986   -0.3466    0.0000 H       1  UNL1        0.0659
     38 H           5.7974    2.0858    0.0000 H       1  UNL1        0.0622
     39 H          10.3514   -2.2734    0.0000 H       1  UNL1        0.0692
     40 H           4.3930    2.8934    0.0000 H       1  UNL1        0.0655
     41 H           8.6194   -2.2734    0.0000 H       1  UNL1        0.2921
     42 H          13.2082   -1.0681    0.0000 H       1  UNL1        0.1166
     43 H          13.2082   -0.2386    0.0000 H       1  UNL1        0.1166
     44 H           1.5384    1.6832    0.0000 H       1  UNL1        0.1166
     45 H           1.5398    0.8537    0.0000 H       1  UNL1        0.1166
@<TRIPOS>BOND
     1     1    10    1
     2     1    12    1
     3     2    11    1
     4     2    13    1
     5     3    16    1
     6     3    41    1
     7     4    20    1
     8     4    26    1
     9     5    21    1
    10     5    27    1
    11     6    24    1
    12     6    26    1
    13     7    25    1
    14     7    27    1
    15     8     9    1
    16     8    10    1
    17     8    13    1
    18     8    28    1
    19     9    11    1
    20     9    12    1
    21     9    29    1
    22    10    14    1
    23    10    30    1
    24    11    15    1
    25    11    31    1
    26    12    32    1
    27    12    33    1
    28    13    34    1
    29    13    35    1
    30    14    16   ar
    31    14    17   ar
    32    15    18   ar
    33    15    19   ar
    34    16    22   ar
    35    17    20   ar
    36    17    36    1
    37    18    21   ar
    38    18    37    1
    39    19    23   ar
    40    19    38    1
    41    20    24   ar
    42    21    25   ar
    43    22    24   ar
    44    22    39    1
    45    23    25   ar
    46    23    40    1
    47    26    42    1
    48    26    43    1
    49    27    44    1
    50    27    45    1
