@<TRIPOS>MOLECULE
IMPHY016254
 29 28 0 0 0
SMALL
GASTEIGER

@<TRIPOS>ATOM
      1 O           6.3301   -0.7500    0.0000 O.2     1  UNL1       -0.2927
      2 C           4.5981    0.2500    0.0000 C.3     1  UNL1       -0.0461
      3 C           3.7320    0.7500    0.0000 C.3     1  UNL1       -0.0529
      4 C           5.4641    0.7500    0.0000 C.3     1  UNL1        0.0099
      5 C           2.8660    0.2500    0.0000 C.3     1  UNL1       -0.0559
      6 C           6.3301    0.2500    0.0000 C.2     1  UNL1        0.1560
      7 C           2.0000    0.7500    0.0000 C.3     1  UNL1       -0.0653
      8 C           7.1962    0.7500    0.0000 C.2     1  UNL1       -0.0205
      9 C           8.0622    0.2500    0.0000 C.2     1  UNL1       -0.0724
     10 C           8.9282    0.7500    0.0000 C.3     1  UNL1       -0.0437
     11 C           8.0622   -0.7500    0.0000 C.3     1  UNL1       -0.0437
     12 H           4.1996   -0.2249    0.0000 H       1  UNL1        0.0269
     13 H           4.9966   -0.2249    0.0000 H       1  UNL1        0.0269
     14 H           4.1306    1.2250    0.0000 H       1  UNL1        0.0265
     15 H           3.3335    1.2250    0.0000 H       1  UNL1        0.0265
     16 H           5.8626    1.2250    0.0000 H       1  UNL1        0.0345
     17 H           5.0656    1.2250    0.0000 H       1  UNL1        0.0345
     18 H           2.4675   -0.2249    0.0000 H       1  UNL1        0.0263
     19 H           3.2646   -0.2249    0.0000 H       1  UNL1        0.0263
     20 H           2.3100    1.2869    0.0000 H       1  UNL1        0.0230
     21 H           1.4631    1.0600    0.0000 H       1  UNL1        0.0230
     22 H           1.6900    0.2131    0.0000 H       1  UNL1        0.0230
     23 H           7.1962    1.3700    0.0000 H       1  UNL1        0.0652
     24 H           9.2382    0.2131    0.0000 H       1  UNL1        0.0274
     25 H           9.4651    1.0600    0.0000 H       1  UNL1        0.0274
     26 H           8.6182    1.2869    0.0000 H       1  UNL1        0.0274
     27 H           7.4422   -0.7500    0.0000 H       1  UNL1        0.0274
     28 H           8.0622   -1.3700    0.0000 H       1  UNL1        0.0274
     29 H           8.6822   -0.7500    0.0000 H       1  UNL1        0.0274
@<TRIPOS>BOND
     1     1     6    2
     2     2     3    1
     3     2     4    1
     4     2    12    1
     5     2    13    1
     6     3     5    1
     7     3    14    1
     8     3    15    1
     9     4     6    1
    10     4    16    1
    11     4    17    1
    12     5     7    1
    13     5    18    1
    14     5    19    1
    15     6     8    1
    16     7    20    1
    17     7    21    1
    18     7    22    1
    19     8     9    2
    20     8    23    1
    21     9    10    1
    22     9    11    1
    23    10    24    1
    24    10    25    1
    25    10    26    1
    26    11    27    1
    27    11    28    1
    28    11    29    1
