@<TRIPOS>MOLECULE
IMPHY017921
 11 11 0 0 0
SMALL
GASTEIGER

@<TRIPOS>ATOM
      1 O           1.2032   -2.2922    0.0000 O.2     1  UNL1       -0.4475
      2 C           2.4064   -1.4164    0.0000 C.ar    1  UNL1        0.1799
      3 C           1.9495    0.0000    0.0000 C.ar    1  UNL1        0.0437
      4 C           0.4569    0.0000    0.0000 C.ar    1  UNL1        0.0439
      5 C           0.0000   -1.4164    0.0000 C.ar    1  UNL1        0.1797
      6 C           3.4344   -2.0409    0.0000 C.2     1  UNL1        0.2072
      7 O           3.4649   -3.1984    0.0000 O.2     1  UNL1       -0.2881
      8 C           4.4853   -1.4393    0.0000 C.3     1  UNL1        0.0724
      9 C           5.5286   -2.0409    0.0000 C.3     1  UNL1        0.0082
     10 C           6.5719   -1.4393    0.0000 C.3     1  UNL1        0.0005
     11 C           7.6152   -2.0409    0.0000 C.3     1  UNL1        0.0000
@<TRIPOS>BOND
     1     1     2   ar
     2     1     5   ar
     3     2     3   ar
     4     2     6    1
     5     3     4   ar
     6     4     5   ar
     7     6     7    2
     8     6     8    1
     9     8     9    1
    10     9    10    1
    11    10    11    1
