@<TRIPOS>MOLECULE
IMPHY013890
 56 56 0 0 0
SMALL
GASTEIGER

@<TRIPOS>ATOM
      1 O          15.8564    0.5950    0.0000 O.3     1  UNL1       -0.5058
      2 O          14.1244   -2.4050    0.0000 O.3     1  UNL1       -0.5066
      3 O          14.9904    2.0950    0.0000 O.3     1  UNL1       -0.4770
      4 O          13.2583    2.0950    0.0000 O.2     1  UNL1       -0.2450
      5 C           8.0622    0.0950    0.0000 C.3     1  UNL1       -0.0531
      6 C           7.1962    0.5950    0.0000 C.3     1  UNL1       -0.0531
      7 C           8.9282    0.5950    0.0000 C.3     1  UNL1       -0.0531
      8 C           6.3301    0.0950    0.0000 C.3     1  UNL1       -0.0531
      9 C           9.7942    0.0950    0.0000 C.3     1  UNL1       -0.0530
     10 C           5.4641    0.5950    0.0000 C.3     1  UNL1       -0.0531
     11 C          10.6603    0.5950    0.0000 C.3     1  UNL1       -0.0528
     12 C           4.5981    0.0950    0.0000 C.3     1  UNL1       -0.0531
     13 C          11.5263    0.0950    0.0000 C.3     1  UNL1       -0.0490
     14 C           3.7320    0.5950    0.0000 C.3     1  UNL1       -0.0533
     15 C          12.3923    0.5950    0.0000 C.3     1  UNL1       -0.0267
     16 C           2.8660    0.0950    0.0000 C.3     1  UNL1       -0.0559
     17 C          13.2583    0.0950    0.0000 C.ar    1  UNL1       -0.0264
     18 C          14.1244    0.5950    0.0000 C.ar    1  UNL1        0.1035
     19 C           2.0000    0.5950    0.0000 C.3     1  UNL1       -0.0653
     20 C          13.2583   -0.9050    0.0000 C.ar    1  UNL1       -0.0160
     21 C          14.9904    0.0950    0.0000 C.ar    1  UNL1        0.1345
     22 C          14.1244   -1.4050    0.0000 C.ar    1  UNL1        0.1206
     23 C          14.9904   -0.9050    0.0000 C.ar    1  UNL1        0.0221
     24 C          14.1244    1.5950    0.0000 C.2     1  UNL1        0.3406
     25 H           7.6636   -0.3799    0.0000 H       1  UNL1        0.0265
     26 H           8.4607   -0.3799    0.0000 H       1  UNL1        0.0265
     27 H           7.5947    1.0700    0.0000 H       1  UNL1        0.0265
     28 H           6.7976    1.0700    0.0000 H       1  UNL1        0.0265
     29 H           9.3267    1.0700    0.0000 H       1  UNL1        0.0265
     30 H           8.5297    1.0700    0.0000 H       1  UNL1        0.0265
     31 H           5.9316   -0.3799    0.0000 H       1  UNL1        0.0265
     32 H           6.7287   -0.3799    0.0000 H       1  UNL1        0.0265
     33 H           9.3957   -0.3799    0.0000 H       1  UNL1        0.0265
     34 H          10.1928   -0.3799    0.0000 H       1  UNL1        0.0265
     35 H           5.8626    1.0700    0.0000 H       1  UNL1        0.0265
     36 H           5.0656    1.0700    0.0000 H       1  UNL1        0.0265
     37 H          11.0588    1.0700    0.0000 H       1  UNL1        0.0265
     38 H          10.2617    1.0700    0.0000 H       1  UNL1        0.0265
     39 H           4.1996   -0.3799    0.0000 H       1  UNL1        0.0265
     40 H           4.9966   -0.3799    0.0000 H       1  UNL1        0.0265
     41 H          11.1278   -0.3799    0.0000 H       1  UNL1        0.0268
     42 H          11.9248   -0.3799    0.0000 H       1  UNL1        0.0268
     43 H           4.1306    1.0700    0.0000 H       1  UNL1        0.0265
     44 H           3.3335    1.0700    0.0000 H       1  UNL1        0.0265
     45 H          12.7908    1.0700    0.0000 H       1  UNL1        0.0313
     46 H          11.9938    1.0700    0.0000 H       1  UNL1        0.0313
     47 H           2.4675   -0.3799    0.0000 H       1  UNL1        0.0263
     48 H           3.2646   -0.3799    0.0000 H       1  UNL1        0.0263
     49 H           2.3100    1.1319    0.0000 H       1  UNL1        0.0230
     50 H           1.4631    0.9050    0.0000 H       1  UNL1        0.0230
     51 H           1.6900    0.0581    0.0000 H       1  UNL1        0.0230
     52 H          12.7214   -1.2150    0.0000 H       1  UNL1        0.0657
     53 H          15.5273   -1.2150    0.0000 H       1  UNL1        0.0691
     54 H          16.3933    0.2850    0.0000 H       1  UNL1        0.2922
     55 H          14.6613   -2.7150    0.0000 H       1  UNL1        0.2921
     56 H          14.9904    2.7150    0.0000 H       1  UNL1        0.2954
@<TRIPOS>BOND
     1     1    21    1
     2     1    54    1
     3     2    22    1
     4     2    55    1
     5     3    24    1
     6     3    56    1
     7     4    24    2
     8     5     6    1
     9     5     7    1
    10     5    25    1
    11     5    26    1
    12     6     8    1
    13     6    27    1
    14     6    28    1
    15     7     9    1
    16     7    29    1
    17     7    30    1
    18     8    10    1
    19     8    31    1
    20     8    32    1
    21     9    11    1
    22     9    33    1
    23     9    34    1
    24    10    12    1
    25    10    35    1
    26    10    36    1
    27    11    13    1
    28    11    37    1
    29    11    38    1
    30    12    14    1
    31    12    39    1
    32    12    40    1
    33    13    15    1
    34    13    41    1
    35    13    42    1
    36    14    16    1
    37    14    43    1
    38    14    44    1
    39    15    17    1
    40    15    45    1
    41    15    46    1
    42    16    19    1
    43    16    47    1
    44    16    48    1
    45    17    18   ar
    46    17    20   ar
    47    18    21   ar
    48    18    24    1
    49    19    49    1
    50    19    50    1
    51    19    51    1
    52    20    22   ar
    53    20    52    1
    54    21    23   ar
    55    22    23   ar
    56    23    53    1
