@<TRIPOS>MOLECULE
IMPHY017467
 40 40 0 0 0
SMALL
GASTEIGER

@<TRIPOS>ATOM
      1 O           2.0000   -0.7990    0.0000 O.2     1  UNL1       -0.3004
      2 C           4.5981   -0.2990    0.0000 C.3     1  UNL1       -0.0186
      3 C           3.7320   -0.7990    0.0000 C.3     1  UNL1        0.0406
      4 C           5.4641   -0.7990    0.0000 C.3     1  UNL1       -0.0432
      5 C           5.0981    0.5670    0.0000 C.3     1  UNL1       -0.0432
      6 C           5.4641   -1.7990    0.0000 C.3     1  UNL1       -0.0340
      7 C           4.0981    0.5670    0.0000 C.3     1  UNL1       -0.0586
      8 C           3.7320   -1.7990    0.0000 C.2     1  UNL1       -0.0661
      9 C           4.5981   -2.2990    0.0000 C.2     1  UNL1       -0.0843
     10 C           6.0981    0.5670    0.0000 C.3     1  UNL1       -0.0340
     11 C           2.8660   -0.2990    0.0000 C.2     1  UNL1        0.1278
     12 C           2.8660   -2.2990    0.0000 C.3     1  UNL1       -0.0431
     13 C           6.5981    1.4330    0.0000 C.2     1  UNL1       -0.0853
     14 C           7.5981    1.4330    0.0000 C.2     1  UNL1       -0.0796
     15 C           8.0981    2.2990    0.0000 C.3     1  UNL1       -0.0440
     16 C           8.0981    0.5670    0.0000 C.3     1  UNL1       -0.0440
     17 H           3.7320   -0.1790    0.0000 H       1  UNL1        0.0425
     18 H           6.0747   -0.9067    0.0000 H       1  UNL1        0.0274
     19 H           5.6762   -0.2164    0.0000 H       1  UNL1        0.0274
     20 H           5.2057    1.1776    0.0000 H       1  UNL1        0.0274
     21 H           4.5155    0.7790    0.0000 H       1  UNL1        0.0274
     22 H           5.6762   -2.3816    0.0000 H       1  UNL1        0.0308
     23 H           6.0747   -1.6914    0.0000 H       1  UNL1        0.0308
     24 H           4.6350    0.8770    0.0000 H       1  UNL1        0.0235
     25 H           3.7881    1.1039    0.0000 H       1  UNL1        0.0235
     26 H           3.5611    0.2570    0.0000 H       1  UNL1        0.0235
     27 H           4.5981   -2.9190    0.0000 H       1  UNL1        0.0572
     28 H           5.9904   -0.0436    0.0000 H       1  UNL1        0.0308
     29 H           6.6807    0.3549    0.0000 H       1  UNL1        0.0308
     30 H           2.8660    0.3210    0.0000 H       1  UNL1        0.1033
     31 H           2.5560   -1.7621    0.0000 H       1  UNL1        0.0275
     32 H           2.3291   -2.6090    0.0000 H       1  UNL1        0.0275
     33 H           3.1760   -2.8360    0.0000 H       1  UNL1        0.0275
     34 H           6.2881    1.9700    0.0000 H       1  UNL1        0.0571
     35 H           8.6350    1.9890    0.0000 H       1  UNL1        0.0274
     36 H           8.4081    2.8360    0.0000 H       1  UNL1        0.0274
     37 H           7.5611    2.6090    0.0000 H       1  UNL1        0.0274
     38 H           7.5611    0.2570    0.0000 H       1  UNL1        0.0274
     39 H           8.4081    0.0301    0.0000 H       1  UNL1        0.0274
     40 H           8.6350    0.8770    0.0000 H       1  UNL1        0.0274
@<TRIPOS>BOND
     1     1    11    2
     2     2     3    1
     3     2     4    1
     4     2     5    1
     5     2     7    1
     6     3     8    1
     7     3    11    1
     8     3    17    1
     9     4     6    1
    10     4    18    1
    11     4    19    1
    12     5    10    1
    13     5    20    1
    14     5    21    1
    15     6     9    1
    16     6    22    1
    17     6    23    1
    18     7    24    1
    19     7    25    1
    20     7    26    1
    21     8     9    2
    22     8    12    1
    23     9    27    1
    24    10    13    1
    25    10    28    1
    26    10    29    1
    27    11    30    1
    28    12    31    1
    29    12    32    1
    30    12    33    1
    31    13    14    2
    32    13    34    1
    33    14    15    1
    34    14    16    1
    35    15    35    1
    36    15    36    1
    37    15    37    1
    38    16    38    1
    39    16    39    1
    40    16    40    1
