@<TRIPOS>MOLECULE
IMPHY005615
 39 41 0 0 0
SMALL
GASTEIGER

@<TRIPOS>ATOM
      1 O           6.0682   -0.1754    0.0000 O.2     1  UNL1       -0.4507
      2 O           7.8003    1.8246    0.0000 O.3     1  UNL1       -0.5007
      3 O          10.3984    0.3246    0.0000 O.3     1  UNL1       -0.4913
      4 O           8.6663   -2.6754    0.0000 O.3     1  UNL1       -0.4913
      5 O           4.3198    2.8592    0.0000 O.3     1  UNL1       -0.5058
      6 O           6.0682    2.8246    0.0000 O.2     1  UNL1       -0.2830
      7 O          10.3984   -1.6754    0.0000 O.3     1  UNL1       -0.5009
      8 O           2.5381   -0.1995    0.0000 O.3     1  UNL1       -0.5065
      9 C           6.9343    0.3246    0.0000 C.ar    1  UNL1        0.1808
     10 C           7.8003   -0.1754    0.0000 C.ar    1  UNL1        0.0282
     11 C           5.2022    1.3246    0.0000 C.ar    1  UNL1        0.1092
     12 C           5.2022    0.3246    0.0000 C.ar    1  UNL1        0.1465
     13 C           6.9343    1.3246    0.0000 C.ar    1  UNL1        0.2082
     14 C           6.0682    1.8246    0.0000 C.ar    1  UNL1        0.2379
     15 C           7.8003   -1.1754    0.0000 C.ar    1  UNL1       -0.0053
     16 C           8.6663    0.3246    0.0000 C.ar    1  UNL1       -0.0053
     17 C           4.3083    1.8593    0.0000 C.ar    1  UNL1        0.1348
     18 C           4.3083   -0.2101    0.0000 C.ar    1  UNL1        0.0231
     19 C           9.5323   -0.1754    0.0000 C.ar    1  UNL1        0.1656
     20 C           8.6663   -1.6754    0.0000 C.ar    1  UNL1        0.1656
     21 C           9.5323   -1.1754    0.0000 C.ar    1  UNL1        0.2010
     22 C           3.4022    0.3038    0.0000 C.ar    1  UNL1        0.1239
     23 C           3.4022    1.3454    0.0000 C.ar    1  UNL1        0.0223
     24 C          10.3984    1.3246    0.0000 C.3     1  UNL1        0.0790
     25 C           7.8003   -3.1754    0.0000 C.3     1  UNL1        0.0790
     26 H           7.2634   -1.4854    0.0000 H       1  UNL1        0.0662
     27 H           8.6663    0.9446    0.0000 H       1  UNL1        0.0662
     28 H           4.3154   -0.8300    0.0000 H       1  UNL1        0.0691
     29 H           2.8665    1.6575    0.0000 H       1  UNL1        0.0691
     30 H           7.8003    2.4446    0.0000 H       1  UNL1        0.2924
     31 H           3.7865    3.1754    0.0000 H       1  UNL1        0.2922
     32 H          10.3984   -2.2954    0.0000 H       1  UNL1        0.2924
     33 H           2.0000    0.1084    0.0000 H       1  UNL1        0.2921
     34 H          11.0184    1.3246    0.0000 H       1  UNL1        0.0660
     35 H          10.3984    1.9446    0.0000 H       1  UNL1        0.0660
     36 H           9.7784    1.3246    0.0000 H       1  UNL1        0.0660
     37 H           7.4903   -2.6385    0.0000 H       1  UNL1        0.0660
     38 H           7.2634   -3.4854    0.0000 H       1  UNL1        0.0660
     39 H           8.1103   -3.7123    0.0000 H       1  UNL1        0.0660
@<TRIPOS>BOND
     1     1     9   ar
     2     1    12   ar
     3     2    13    1
     4     2    30    1
     5     3    19    1
     6     3    24    1
     7     4    20    1
     8     4    25    1
     9     5    17    1
    10     5    31    1
    11     6    14    2
    12     7    21    1
    13     7    32    1
    14     8    22    1
    15     8    33    1
    16     9    10    1
    17     9    13   ar
    18    10    15   ar
    19    10    16   ar
    20    11    12   ar
    21    11    14   ar
    22    11    17   ar
    23    12    18   ar
    24    13    14   ar
    25    15    20   ar
    26    15    26    1
    27    16    19   ar
    28    16    27    1
    29    17    23   ar
    30    18    22   ar
    31    18    28    1
    32    19    21   ar
    33    20    21   ar
    34    22    23   ar
    35    23    29    1
    36    24    34    1
    37    24    35    1
    38    24    36    1
    39    25    37    1
    40    25    38    1
    41    25    39    1
