@<TRIPOS>MOLECULE
IMPHY011096
 52 54 0 0 0
SMALL
GASTEIGER

@<TRIPOS>ATOM
      1 O           7.7618   -0.2796    0.0000 O.3     1  UNL1       -0.3214
      2 O           6.6865   -1.7514    0.0000 O.3     1  UNL1       -0.4248
      3 O           5.1637    1.2204    0.0000 O.3     1  UNL1       -0.4567
      4 O           9.0388   -2.5084    0.0000 O.3     1  UNL1       -0.3886
      5 O           9.2160    1.4914    0.0000 O.2     1  UNL1       -0.2943
      6 O           5.1978   -2.7204    0.0000 O.2     1  UNL1       -0.2451
      7 O           3.6464   -1.4847    0.0000 O.3     1  UNL1       -0.4598
      8 O           6.0297    2.7204    0.0000 O.2     1  UNL1       -0.2511
      9 O           2.3572   -0.3280    0.0000 O.2     1  UNL1       -0.2512
     10 C           6.8957   -0.7796    0.0000 C.3     1  UNL1        0.2463
     11 C           7.7618    0.7204    0.0000 C.3     1  UNL1        0.1324
     12 C           7.4715   -1.5681    0.0000 C.3     1  UNL1        0.0462
     13 C           6.0297   -0.2796    0.0000 C.2     1  UNL1        0.0546
     14 C           6.8957    1.2204    0.0000 C.3     1  UNL1        0.0245
     15 C           8.4376   -1.7093    0.0000 C.3     1  UNL1        0.0700
     16 C           6.0297    0.7204    0.0000 C.3     1  UNL1        0.1340
     17 C           9.2151   -1.1186    0.0000 C.3     1  UNL1       -0.0173
     18 C           8.7325    0.6161    0.0000 C.2     1  UNL1        0.1650
     19 C           9.3379   -0.1500    0.0000 C.3     1  UNL1        0.0113
     20 C           5.2927   -0.9466    0.0000 C.2     1  UNL1        0.0826
     21 C           7.7618    1.7204    0.0000 C.3     1  UNL1       -0.0286
     22 C           8.2977   -2.6995    0.0000 C.3     1  UNL1       -0.0358
     23 C           5.6978   -1.8544    0.0000 C.2     1  UNL1        0.3413
     24 C           4.3142   -0.7404    0.0000 C.3     1  UNL1        0.1244
     25 C           5.1637    2.2204    0.0000 C.2     1  UNL1        0.3045
     26 C           4.2977    2.7204    0.0000 C.3     1  UNL1        0.0333
     27 C           2.6678   -1.2785    0.0000 C.2     1  UNL1        0.3043
     28 C           2.0000   -2.0228    0.0000 C.3     1  UNL1        0.0332
     29 H           6.8940   -1.7935    0.0000 H       1  UNL1        0.0360
     30 H           7.5417   -2.1841    0.0000 H       1  UNL1        0.0360
     31 H           7.2943    1.6954    0.0000 H       1  UNL1        0.0336
     32 H           6.4972    1.6954    0.0000 H       1  UNL1        0.0336
     33 H           6.0297    1.3404    0.0000 H       1  UNL1        0.0785
     34 H           9.4514   -1.6918    0.0000 H       1  UNL1        0.0297
     35 H           9.8296   -1.0367    0.0000 H       1  UNL1        0.0297
     36 H           9.9126   -0.3827    0.0000 H       1  UNL1        0.0343
     37 H           9.7099    0.3460    0.0000 H       1  UNL1        0.0343
     38 H           8.3818    1.7204    0.0000 H       1  UNL1        0.0262
     39 H           7.7618    2.3404    0.0000 H       1  UNL1        0.0262
     40 H           7.1418    1.7204    0.0000 H       1  UNL1        0.0262
     41 H           7.6838   -2.6127    0.0000 H       1  UNL1        0.0257
     42 H           8.2109   -3.3134    0.0000 H       1  UNL1        0.0257
     43 H           8.9116   -2.7862    0.0000 H       1  UNL1        0.0257
     44 H           4.5454   -0.1652    0.0000 H       1  UNL1        0.0751
     45 H           3.7878   -0.4128    0.0000 H       1  UNL1        0.0751
     46 H           9.6543   -2.4333    0.0000 H       1  UNL1        0.2102
     47 H           4.6077    3.2574    0.0000 H       1  UNL1        0.0342
     48 H           3.7607    3.0304    0.0000 H       1  UNL1        0.0342
     49 H           3.9877    2.1835    0.0000 H       1  UNL1        0.0342
     50 H           1.5385   -1.6087    0.0000 H       1  UNL1        0.0342
     51 H           1.5859   -2.4843    0.0000 H       1  UNL1        0.0342
     52 H           2.4615   -2.4369    0.0000 H       1  UNL1        0.0342
@<TRIPOS>BOND
     1     1    10    1
     2     1    11    1
     3    10     2    1
     4     2    23    1
     5    16     3    1
     6     3    25    1
     7    15     4    1
     8     4    46    1
     9     5    18    2
    10     6    23    2
    11     7    24    1
    12     7    27    1
    13     8    25    2
    14     9    27    2
    15    10    12    1
    16    10    13    1
    17    11    14    1
    18    11    18    1
    19    11    21    1
    20    12    15    1
    21    12    29    1
    22    12    30    1
    23    13    16    1
    24    13    20    2
    25    14    16    1
    26    14    31    1
    27    14    32    1
    28    15    17    1
    29    15    22    1
    30    16    33    1
    31    17    19    1
    32    17    34    1
    33    17    35    1
    34    18    19    1
    35    19    36    1
    36    19    37    1
    37    20    23    1
    38    20    24    1
    39    21    38    1
    40    21    39    1
    41    21    40    1
    42    22    41    1
    43    22    42    1
    44    22    43    1
    45    24    44    1
    46    24    45    1
    47    25    26    1
    48    26    47    1
    49    26    48    1
    50    26    49    1
    51    27    28    1
    52    28    50    1
    53    28    51    1
    54    28    52    1
