@<TRIPOS>MOLECULE
IMPHY006349
 15 14 0 0 0
SMALL
GASTEIGER

@<TRIPOS>ATOM
      1 S           4.5981   -0.2500    0.0000 S.3     1  UNL1       -0.0778
      2 S           5.4641    0.2500    0.0000 S.3     1  UNL1       -0.0242
      3 S           6.3301   -0.2500    0.0000 S.3     1  UNL1       -0.0852
      4 C           3.7320    0.2500    0.0000 C.3     1  UNL1        0.0225
      5 C           2.8660   -0.2500    0.0000 C.2     1  UNL1       -0.0805
      6 C           2.0000    0.2500    0.0000 C.2     1  UNL1       -0.1018
      7 C           7.1962    0.2500    0.0000 C.3     1  UNL1       -0.0071
      8 H           4.1306    0.7249    0.0000 H       1  UNL1        0.0427
      9 H           3.3335    0.7249    0.0000 H       1  UNL1        0.0427
     10 H           2.8660   -0.8700    0.0000 H       1  UNL1        0.0575
     11 H           7.5062   -0.2869    0.0000 H       1  UNL1        0.0349
     12 H           7.7331    0.5600    0.0000 H       1  UNL1        0.0349
     13 H           6.8862    0.7869    0.0000 H       1  UNL1        0.0349
     14 H           2.0000    0.8700    0.0000 H       1  UNL1        0.0532
     15 H           1.4631   -0.0600    0.0000 H       1  UNL1        0.0532
@<TRIPOS>BOND
     1     1     2    1
     2     1     4    1
     3     2     3    1
     4     3     7    1
     5     4     5    1
     6     4     8    1
     7     4     9    1
     8     5     6    2
     9     5    10    1
    10     6    14    1
    11     6    15    1
    12     7    11    1
    13     7    12    1
    14     7    13    1
