@<TRIPOS>MOLECULE
IMPHY000537
 22 24 0 0 0
SMALL
GASTEIGER

@<TRIPOS>ATOM
      1 C           2.9531    3.3633    0.0000 C.ar    1  UNL1        0.0389
      2 C           3.8200    3.8643    0.0000 C.2     1  UNL1        0.1983
      3 C           2.6117    2.4233    0.0000 C.ar    1  UNL1       -0.0082
      4 C           2.3102    4.1282    0.0000 C.ar    1  UNL1        0.0483
      5 C           4.8044    3.6892    0.0000 C.ar    1  UNL1        0.0731
      6 O           3.6449    4.8465    0.0000 O.2     1  UNL1       -0.2865
      7 C           1.6251    2.2481    0.0000 C.ar    1  UNL1        0.0417
      8 C           2.9531    1.4832    0.0000 C.3     1  UNL1        0.0949
      9 C           1.3258    3.9552    0.0000 C.ar    1  UNL1        0.2343
     10 C           5.4473    2.9221    0.0000 C.ar    1  UNL1        0.1454
     11 C           5.1458    4.6292    0.0000 C.ar    1  UNL1        0.0095
     12 C           0.9822    3.0152    0.0000 C.ar    1  UNL1        0.2340
     13 C           3.8200    0.9822    0.0000 C.2     1  UNL1        0.1988
     14 O           0.6829    4.7224    0.0000 O.3     1  UNL1       -0.2831
     15 C           6.4317    3.0972    0.0000 C.ar    1  UNL1        0.0790
     16 O           5.4473    1.9222    0.0000 O.3     1  UNL1       -0.4673
     17 C           6.1324    4.8022    0.0000 C.ar    1  UNL1        0.0423
     18 O           0.0000    2.8401    0.0000 O.3     1  UNL1       -0.2832
     19 C           4.8044    1.1573    0.0000 C.3     1  UNL1        0.2693
     20 O           3.6449    0.0000    0.0000 O.2     1  UNL1       -0.2918
     21 C           6.7731    4.0373    0.0000 C.ar    1  UNL1        0.1988
     22 O           7.7597    4.2102    0.0000 O.3     1  UNL1       -0.2865
@<TRIPOS>BOND
     1     1     2    1
     2     1     3   ar
     3     1     4   ar
     4     2     5    1
     5     2     6    2
     6     3     7   ar
     7     3     8    1
     8     4     9   ar
     9     5    10   ar
    10     5    11   ar
    11     7    12   ar
    12     8    13    1
    13     9    12   ar
    14     9    14    1
    15    10    15   ar
    16    10    16    1
    17    11    17   ar
    18    12    18    1
    19    13    19    1
    20    13    20    2
    21    15    21   ar
    22    16    19    1
    23    17    21   ar
    24    21    22    1
