@<TRIPOS>MOLECULE
IMPHY000033
 51 55 0 0 0
SMALL
GASTEIGER

@<TRIPOS>ATOM
      1 O           3.1925    1.3546    0.0000 O.3     1  UNL1       -0.3758
      2 O           2.1476   -1.5278    0.0000 O.2     1  UNL1       -0.3006
      3 N           7.0337    1.8704    0.0000 N.3     1  UNL1       -0.2934
      4 N           8.0534   -1.8986    0.0000 N.ar    1  UNL1       -0.3452
      5 C           4.8655    0.6901    0.0000 C.3     1  UNL1        0.0020
      6 C           4.5071   -0.2435    0.0000 C.3     1  UNL1       -0.0213
      7 C           6.2971    0.8878    0.0000 C.3     1  UNL1        0.0200
      8 C           6.5559   -0.0781    0.0000 C.3     1  UNL1        0.0513
      9 C           5.2842   -0.8728    0.0000 C.3     1  UNL1       -0.0279
     10 C           3.4809   -0.4222    0.0000 C.3     1  UNL1        0.0436
     11 C           8.3304    0.5767    0.0000 C.3     1  UNL1       -0.0093
     12 C           7.7770   -0.9438    0.0000 C.ar    1  UNL1        0.0400
     13 C           4.2225    1.5096    0.0000 C.3     1  UNL1        0.0526
     14 C           8.6060   -0.3846    0.0000 C.ar    1  UNL1       -0.0159
     15 C           2.8192    0.3822    0.0000 C.3     1  UNL1        0.0654
     16 C           7.5337    2.7364    0.0000 C.3     1  UNL1       -0.0118
     17 C           9.3878   -0.9987    0.0000 C.ar    1  UNL1        0.0034
     18 C           9.0470   -1.9325    0.0000 C.ar    1  UNL1        0.0493
     19 C           3.1334   -1.3599    0.0000 C.2     1  UNL1        0.1261
     20 C           1.8321    0.2219    0.0000 C.3     1  UNL1       -0.0380
     21 C           7.4392   -2.6877    0.0000 C.3     1  UNL1        0.0122
     22 C          10.4048   -0.8040    0.0000 C.ar    1  UNL1       -0.0523
     23 C           9.6995   -2.7364    0.0000 C.ar    1  UNL1       -0.0376
     24 C          11.0758   -1.5927    0.0000 C.ar    1  UNL1       -0.0611
     25 C          10.7208   -2.5654    0.0000 C.ar    1  UNL1       -0.0598
     26 H           5.1701    1.4837    0.0000 H       1  UNL1        0.0341
     27 H           4.2025   -1.0370    0.0000 H       1  UNL1        0.0313
     28 H           6.0771    1.7088    0.0000 H       1  UNL1        0.0469
     29 H           6.7759   -0.8992    0.0000 H       1  UNL1        0.0527
     30 H           5.6688   -1.3591    0.0000 H       1  UNL1        0.0287
     31 H           4.8433   -1.3086    0.0000 H       1  UNL1        0.0287
     32 H           2.8695   -0.5251    0.0000 H       1  UNL1        0.0403
     33 H           8.3354    1.1966    0.0000 H       1  UNL1        0.0329
     34 H           8.9447    0.6604    0.0000 H       1  UNL1        0.0329
     35 H           4.0267    2.0979    0.0000 H       1  UNL1        0.0563
     36 H           4.7686    1.8032    0.0000 H       1  UNL1        0.0563
     37 H           2.4281    0.8633    0.0000 H       1  UNL1        0.0600
     38 H           6.9968    3.0464    0.0000 H       1  UNL1        0.0391
     39 H           7.8437    3.2734    0.0000 H       1  UNL1        0.0391
     40 H           8.0707    2.4264    0.0000 H       1  UNL1        0.0391
     41 H           3.5291   -1.8372    0.0000 H       1  UNL1        0.1030
     42 H           1.9315   -0.3900    0.0000 H       1  UNL1        0.0255
     43 H           1.2201    0.1226    0.0000 H       1  UNL1        0.0255
     44 H           1.7328    0.8339    0.0000 H       1  UNL1        0.0255
     45 H           7.9284   -3.0686    0.0000 H       1  UNL1        0.0456
     46 H           7.0583   -3.1770    0.0000 H       1  UNL1        0.0456
     47 H           6.9499   -2.3069    0.0000 H       1  UNL1        0.0456
     48 H          10.6106   -0.2192    0.0000 H       1  UNL1        0.0624
     49 H           9.4802   -3.3164    0.0000 H       1  UNL1        0.0638
     50 H          11.6860   -1.4832    0.0000 H       1  UNL1        0.0618
     51 H          11.1170   -3.0422    0.0000 H       1  UNL1        0.0618
@<TRIPOS>BOND
     1     1    13    1
     2     1    15    1
     3     2    19    2
     4     3     7    1
     5     3     8    1
     6     3    16    1
     7     4    12   ar
     8     4    18   ar
     9     4    21    1
    10     5     6    1
    11     5     7    1
    12     5    13    1
    13     5    26    1
    14     6     9    1
    15     6    10    1
    16     6    27    1
    17     7    11    1
    18     7    28    1
    19     8     9    1
    20     8    12    1
    21     8    29    1
    22     9    30    1
    23     9    31    1
    24    10    15    1
    25    10    19    1
    26    10    32    1
    27    11    14    1
    28    11    33    1
    29    11    34    1
    30    12    14   ar
    31    13    35    1
    32    13    36    1
    33    14    17   ar
    34    15    20    1
    35    15    37    1
    36    16    38    1
    37    16    39    1
    38    16    40    1
    39    17    18   ar
    40    17    22   ar
    41    18    23   ar
    42    19    41    1
    43    20    42    1
    44    20    43    1
    45    20    44    1
    46    21    45    1
    47    21    46    1
    48    21    47    1
    49    22    24   ar
    50    22    48    1
    51    23    25   ar
    52    23    49    1
    53    24    25   ar
    54    24    50    1
    55    25    51    1
