@<TRIPOS>MOLECULE
IMPHY009611
 79 84 0 0 0
SMALL
GASTEIGER

@<TRIPOS>ATOM
      1 O           8.7297    2.0599    0.0000 O.3     1  UNL1       -0.3416
      2 O           8.1158    1.3183    0.0000 O.3     1  UNL1       -0.3850
      3 O           5.4755    3.6784    0.0000 O.3     1  UNL1       -0.3876
      4 O           9.3560    0.3372    0.0000 O.3     1  UNL1       -0.3639
      5 O           8.6110    4.9478    0.0000 O.3     1  UNL1       -0.3884
      6 O           6.0010   -2.2371    0.0000 O.3     1  UNL1       -0.3484
      7 O           4.2690   -2.2371    0.0000 O.3     1  UNL1       -0.3405
      8 O           6.0010   -4.2371    0.0000 O.3     1  UNL1       -0.3841
      9 O           4.2690   -5.2371    0.0000 O.3     1  UNL1       -0.3864
     10 O           2.5369   -4.2371    0.0000 O.3     1  UNL1       -0.3865
     11 O           2.5369   -1.2371    0.0000 O.3     1  UNL1       -0.3924
     12 C           7.1716    1.6478    0.0000 C.3     1  UNL1        0.1064
     13 C           7.7117    0.8132    0.0000 C.3     1  UNL1        0.0562
     14 C           6.1846    1.8083    0.0000 C.3     1  UNL1       -0.0005
     15 C           5.8300    2.7433    0.0000 C.3     1  UNL1        0.0076
     16 C           7.8041    2.4223    0.0000 C.3     1  UNL1        0.0996
     17 C           6.4625    3.5179    0.0000 C.3     1  UNL1        0.0799
     18 C           8.6728    1.0674    0.0000 C.3     1  UNL1        0.1766
     19 C           7.4496    3.3574    0.0000 C.3     1  UNL1        0.0459
     20 C           6.8671    0.2629    0.0000 C.3     1  UNL1       -0.0230
     21 C           6.7676    1.0847    0.0000 C.3     1  UNL1        0.0102
     22 C           6.0224    0.8132    0.0000 C.3     1  UNL1       -0.0430
     23 C           7.9022    4.2424    0.0000 C.3     1  UNL1        0.0713
     24 C           6.3136    4.5007    0.0000 C.3     1  UNL1       -0.0204
     25 C           7.3512   -0.1195    0.0000 C.3     1  UNL1       -0.0516
     26 C           4.8336    2.8283    0.0000 C.3     1  UNL1       -0.0564
     27 C           7.2016    4.9476    0.0000 C.3     1  UNL1       -0.0212
     28 C           6.8671   -0.7371    0.0000 C.3     1  UNL1       -0.0167
     29 C           8.7921    3.7863    0.0000 C.3     1  UNL1       -0.0356
     30 C           6.0010   -1.2371    0.0000 C.3     1  UNL1        0.0536
     31 C           7.7331   -1.2371    0.0000 C.3     1  UNL1       -0.0601
     32 C           5.1350   -2.7371    0.0000 C.3     1  UNL1        0.1879
     33 C           5.1350   -3.7371    0.0000 C.3     1  UNL1        0.1341
     34 C           4.2690   -4.2371    0.0000 C.3     1  UNL1        0.1141
     35 C           3.4030   -2.7371    0.0000 C.3     1  UNL1        0.1130
     36 C           3.4030   -3.7371    0.0000 C.3     1  UNL1        0.1119
     37 C           2.5369   -2.2371    0.0000 C.3     1  UNL1        0.0730
     38 H           5.5677    1.7461    0.0000 H       1  UNL1        0.0336
     39 H           7.9613    1.8226    0.0000 H       1  UNL1        0.0631
     40 H           8.0686    3.3232    0.0000 H       1  UNL1        0.0383
     41 H           6.3220   -0.0325    0.0000 H       1  UNL1        0.0312
     42 H           6.1831    0.8780    0.0000 H       1  UNL1        0.0323
     43 H           6.8697    0.4732    0.0000 H       1  UNL1        0.0323
     44 H           5.4301    0.9966    0.0000 H       1  UNL1        0.0272
     45 H           5.7590    0.2520    0.0000 H       1  UNL1        0.0272
     46 H           6.0946    5.0808    0.0000 H       1  UNL1        0.0294
     47 H           5.7138    4.3439    0.0000 H       1  UNL1        0.0294
     48 H           6.7729    0.1041    0.0000 H       1  UNL1        0.0238
     49 H           7.1276   -0.6978    0.0000 H       1  UNL1        0.0238
     50 H           7.9294   -0.3430    0.0000 H       1  UNL1        0.0238
     51 H           4.8864    3.4461    0.0000 H       1  UNL1        0.0236
     52 H           4.2159    2.8811    0.0000 H       1  UNL1        0.0236
     53 H           4.7809    2.2106    0.0000 H       1  UNL1        0.0236
     54 H           7.6849    5.3360    0.0000 H       1  UNL1        0.0294
     55 H           6.8662    5.4691    0.0000 H       1  UNL1        0.0294
     56 H           6.8671   -1.3571    0.0000 H       1  UNL1        0.0323
     57 H           8.2316    0.7092    0.0000 H       1  UNL1        0.2103
     58 H           5.2557    4.2581    0.0000 H       1  UNL1        0.2102
     59 H           9.9599    0.4777    0.0000 H       1  UNL1        0.2128
     60 H           8.5094    3.2346    0.0000 H       1  UNL1        0.0257
     61 H           9.3439    3.5035    0.0000 H       1  UNL1        0.0257
     62 H           9.0749    4.3381    0.0000 H       1  UNL1        0.0257
     63 H           5.7890   -0.6545    0.0000 H       1  UNL1        0.0563
     64 H           5.3905   -1.3447    0.0000 H       1  UNL1        0.0563
     65 H           7.4231   -1.7740    0.0000 H       1  UNL1        0.0233
     66 H           8.2700   -1.5471    0.0000 H       1  UNL1        0.0233
     67 H           8.0431   -0.7002    0.0000 H       1  UNL1        0.0233
     68 H           8.4520    5.5471    0.0000 H       1  UNL1        0.2102
     69 H           5.1350   -2.1171    0.0000 H       1  UNL1        0.0937
     70 H           5.1350   -4.3571    0.0000 H       1  UNL1        0.0671
     71 H           3.7320   -4.5471    0.0000 H       1  UNL1        0.0648
     72 H           3.4030   -2.1171    0.0000 H       1  UNL1        0.0647
     73 H           3.4030   -4.3571    0.0000 H       1  UNL1        0.0647
     74 H           6.5380   -3.9271    0.0000 H       1  UNL1        0.2101
     75 H           1.9264   -2.1294    0.0000 H       1  UNL1        0.0584
     76 H           2.3249   -2.8197    0.0000 H       1  UNL1        0.0584
     77 H           3.7320   -5.5471    0.0000 H       1  UNL1        0.2100
     78 H           2.0000   -3.9271    0.0000 H       1  UNL1        0.2100
     79 H           2.0000   -0.9271    0.0000 H       1  UNL1        0.2095
@<TRIPOS>BOND
     1     1    16    1
     2     1    18    1
     3     2    12    1
     4     2    57    1
     5     3    17    1
     6     3    58    1
     7     4    18    1
     8     4    59    1
     9     5    23    1
    10     5    68    1
    11     6    30    1
    12     6    32    1
    13     7    32    1
    14     7    35    1
    15     8    33    1
    16     8    74    1
    17     9    34    1
    18     9    77    1
    19    10    36    1
    20    10    78    1
    21    11    37    1
    22    11    79    1
    23    12    13    1
    24    12    14    1
    25    12    16    1
    26    13    18    1
    27    13    20    1
    28    13    25    1
    29    14    15    1
    30    14    22    1
    31    14    38    1
    32    15    17    1
    33    15    21    1
    34    15    26    1
    35    16    19    1
    36    16    39    1
    37    17    19    1
    38    17    24    1
    39    18    21    1
    40    19    23    1
    41    19    40    1
    42    20    22    1
    43    20    28    1
    44    20    41    1
    45    21    42    1
    46    21    43    1
    47    22    44    1
    48    22    45    1
    49    23    27    1
    50    23    29    1
    51    24    27    1
    52    24    46    1
    53    24    47    1
    54    25    48    1
    55    25    49    1
    56    25    50    1
    57    26    51    1
    58    26    52    1
    59    26    53    1
    60    27    54    1
    61    27    55    1
    62    28    30    1
    63    28    31    1
    64    28    56    1
    65    29    60    1
    66    29    61    1
    67    29    62    1
    68    30    63    1
    69    30    64    1
    70    31    65    1
    71    31    66    1
    72    31    67    1
    73    32    33    1
    74    32    69    1
    75    33    34    1
    76    33    70    1
    77    34    36    1
    78    34    71    1
    79    35    36    1
    80    35    37    1
    81    35    72    1
    82    36    73    1
    83    37    75    1
    84    37    76    1
