@<TRIPOS>MOLECULE
IMPHY005643
 36 38 0 0 0
SMALL
GASTEIGER

@<TRIPOS>ATOM
      1 O           6.3981   -0.2704    0.0000 O.2     1  UNL1       -0.4507
      2 O           2.8680    1.7538    0.0000 O.3     1  UNL1       -0.4885
      3 O           4.6497    2.7642    0.0000 O.3     1  UNL1       -0.5027
      4 O           8.1301    1.7296    0.0000 O.3     1  UNL1       -0.5007
      5 O           2.8680   -0.2945    0.0000 O.3     1  UNL1       -0.5031
      6 O           6.3981    2.7296    0.0000 O.2     1  UNL1       -0.2830
      7 O           8.9962   -2.7704    0.0000 O.3     1  UNL1       -0.5033
      8 O          10.7282   -1.7704    0.0000 O.3     1  UNL1       -0.5033
      9 C           5.5320    1.2296    0.0000 C.ar    1  UNL1        0.1128
     10 C           5.5320    0.2296    0.0000 C.ar    1  UNL1        0.1468
     11 C           7.2641    0.2296    0.0000 C.ar    1  UNL1        0.1807
     12 C           6.3981    1.7296    0.0000 C.ar    1  UNL1        0.2380
     13 C           4.6381    1.7643    0.0000 C.ar    1  UNL1        0.1769
     14 C           7.2641    1.2296    0.0000 C.ar    1  UNL1        0.2082
     15 C           8.1301   -0.2704    0.0000 C.ar    1  UNL1        0.0247
     16 C           4.6381   -0.3051    0.0000 C.ar    1  UNL1        0.0268
     17 C           3.7320    1.2504    0.0000 C.ar    1  UNL1        0.2040
     18 C           3.7320    0.2088    0.0000 C.ar    1  UNL1        0.1657
     19 C           8.1301   -1.2704    0.0000 C.ar    1  UNL1       -0.0057
     20 C           8.9962    0.2296    0.0000 C.ar    1  UNL1       -0.0473
     21 C           8.9962   -1.7704    0.0000 C.ar    1  UNL1        0.1589
     22 C           9.8622   -0.2704    0.0000 C.ar    1  UNL1       -0.0159
     23 C           9.8622   -1.2704    0.0000 C.ar    1  UNL1        0.1583
     24 C           2.0000    1.2571    0.0000 C.3     1  UNL1        0.0791
     25 H           4.6453   -0.9250    0.0000 H       1  UNL1        0.0692
     26 H           7.5932   -1.5804    0.0000 H       1  UNL1        0.0662
     27 H           8.9962    0.8496    0.0000 H       1  UNL1        0.0626
     28 H          10.3991    0.0396    0.0000 H       1  UNL1        0.0655
     29 H           4.1164    3.0804    0.0000 H       1  UNL1        0.2923
     30 H           8.1301    2.3496    0.0000 H       1  UNL1        0.2924
     31 H           2.8703   -0.9145    0.0000 H       1  UNL1        0.2923
     32 H           1.6921    1.7952    0.0000 H       1  UNL1        0.0660
     33 H           1.4619    0.9492    0.0000 H       1  UNL1        0.0660
     34 H           2.3079    0.7190    0.0000 H       1  UNL1        0.0660
     35 H           9.5331   -3.0804    0.0000 H       1  UNL1        0.2923
     36 H          11.2651   -1.4604    0.0000 H       1  UNL1        0.2923
@<TRIPOS>BOND
     1     1    10   ar
     2     1    11   ar
     3     2    17    1
     4     2    24    1
     5     3    13    1
     6     3    29    1
     7     4    14    1
     8     4    30    1
     9     5    18    1
    10     5    31    1
    11     6    12    2
    12     7    21    1
    13     7    35    1
    14     8    23    1
    15     8    36    1
    16     9    10   ar
    17     9    12   ar
    18     9    13   ar
    19    10    16   ar
    20    11    14   ar
    21    11    15    1
    22    12    14   ar
    23    13    17   ar
    24    15    19   ar
    25    15    20   ar
    26    16    18   ar
    27    16    25    1
    28    17    18   ar
    29    19    21   ar
    30    19    26    1
    31    20    22   ar
    32    20    27    1
    33    21    23   ar
    34    22    23   ar
    35    22    28    1
    36    24    32    1
    37    24    33    1
    38    24    34    1
