@<TRIPOS>MOLECULE
IMPHY007270
 54 56 0 0 0
SMALL
GASTEIGER

@<TRIPOS>ATOM
      1 O           2.5827    0.6286    0.0000 O.3     1  UNL1       -0.3885
      2 O           2.6691   -0.9646    0.0000 O.2     1  UNL1       -0.4675
      3 C           5.3147    0.6286    0.0000 C.3     1  UNL1       -0.0229
      4 C           5.3147    1.6286    0.0000 C.3     1  UNL1       -0.0300
      5 C           4.4487    0.1286    0.0000 C.3     1  UNL1        0.0001
      6 C           6.2087    2.1633    0.0000 C.3     1  UNL1       -0.0315
      7 C           3.5827    0.6286    0.0000 C.3     1  UNL1        0.0670
      8 C           6.2087    0.0940    0.0000 C.3     1  UNL1       -0.0470
      9 C           4.4487    2.1286    0.0000 C.3     1  UNL1       -0.0466
     10 C           3.5827    1.6286    0.0000 C.3     1  UNL1       -0.0237
     11 C           7.1147    1.6494    0.0000 C.3     1  UNL1       -0.0476
     12 C           7.1147    0.6078    0.0000 C.3     1  UNL1       -0.0521
     13 C           5.3147   -0.3714    0.0000 C.3     1  UNL1       -0.0589
     14 C           4.4487   -0.8714    0.0000 C.3     1  UNL1        0.0117
     15 C           6.6986    3.0350    0.0000 C.3     1  UNL1       -0.0595
     16 C           5.6987    3.0235    0.0000 C.3     1  UNL1       -0.0595
     17 C           3.0827   -0.2374    0.0000 C.3     1  UNL1       -0.0358
     18 C           3.5827   -1.3714    0.0000 C.ar    1  UNL1        0.1081
     19 C           3.4782   -2.3659    0.0000 C.ar    1  UNL1       -0.0096
     20 C           2.5000   -2.5738    0.0000 C.ar    1  UNL1       -0.0207
     21 C           2.0000   -1.7078    0.0000 C.ar    1  UNL1        0.0923
     22 C           4.2213   -3.0350    0.0000 C.3     1  UNL1       -0.0365
     23 H           5.3100    2.2486    0.0000 H       1  UNL1        0.0311
     24 H           3.9118   -0.1814    0.0000 H       1  UNL1        0.0338
     25 H           5.8041   -0.3758    0.0000 H       1  UNL1        0.0271
     26 H           6.6023   -0.3851    0.0000 H       1  UNL1        0.0271
     27 H           4.8472    2.6036    0.0000 H       1  UNL1        0.0269
     28 H           4.0502    2.6036    0.0000 H       1  UNL1        0.0269
     29 H           3.3706    2.2112    0.0000 H       1  UNL1        0.0293
     30 H           2.9721    1.5210    0.0000 H       1  UNL1        0.0293
     31 H           7.7256    1.5433    0.0000 H       1  UNL1        0.0271
     32 H           7.3238    2.2331    0.0000 H       1  UNL1        0.0271
     33 H           7.3238    0.0241    0.0000 H       1  UNL1        0.0266
     34 H           7.7256    0.7139    0.0000 H       1  UNL1        0.0266
     35 H           4.6947   -0.3714    0.0000 H       1  UNL1        0.0235
     36 H           5.3147   -0.9914    0.0000 H       1  UNL1        0.0235
     37 H           5.9347   -0.3714    0.0000 H       1  UNL1        0.0235
     38 H           4.6608   -1.4540    0.0000 H       1  UNL1        0.0347
     39 H           5.0593   -0.7637    0.0000 H       1  UNL1        0.0347
     40 H           7.2391    2.7313    0.0000 H       1  UNL1        0.0235
     41 H           7.0024    3.5755    0.0000 H       1  UNL1        0.0235
     42 H           6.1581    3.3388    0.0000 H       1  UNL1        0.0235
     43 H           6.2320    3.3397    0.0000 H       1  UNL1        0.0235
     44 H           5.3825    3.5568    0.0000 H       1  UNL1        0.0235
     45 H           5.1654    2.7073    0.0000 H       1  UNL1        0.0235
     46 H           2.5457    0.0726    0.0000 H       1  UNL1        0.0257
     47 H           2.7727   -0.7743    0.0000 H       1  UNL1        0.0257
     48 H           3.6196   -0.5474    0.0000 H       1  UNL1        0.0257
     49 H           2.2727    1.1656    0.0000 H       1  UNL1        0.2102
     50 H           2.2478   -3.1402    0.0000 H       1  UNL1        0.0652
     51 H           1.3834   -1.6430    0.0000 H       1  UNL1        0.1029
     52 H           3.8064   -3.4958    0.0000 H       1  UNL1        0.0279
     53 H           4.6820   -3.4499    0.0000 H       1  UNL1        0.0279
     54 H           4.6362   -2.5743    0.0000 H       1  UNL1        0.0279
@<TRIPOS>BOND
     1     1     7    1
     2     1    49    1
     3     2    18   ar
     4     2    21   ar
     5     3     4    1
     6     3     5    1
     7     3     8    1
     8     3    13    1
     9     4     6    1
    10     4     9    1
    11     4    23    1
    12     5     7    1
    13     5    14    1
    14     5    24    1
    15     6    11    1
    16     6    15    1
    17     6    16    1
    18     7    10    1
    19     7    17    1
    20     8    12    1
    21     8    25    1
    22     8    26    1
    23     9    10    1
    24     9    27    1
    25     9    28    1
    26    10    29    1
    27    10    30    1
    28    11    12    1
    29    11    31    1
    30    11    32    1
    31    12    33    1
    32    12    34    1
    33    13    35    1
    34    13    36    1
    35    13    37    1
    36    14    18    1
    37    14    38    1
    38    14    39    1
    39    15    40    1
    40    15    41    1
    41    15    42    1
    42    16    43    1
    43    16    44    1
    44    16    45    1
    45    17    46    1
    46    17    47    1
    47    17    48    1
    48    18    19   ar
    49    19    20   ar
    50    19    22    1
    51    20    21   ar
    52    20    50    1
    53    21    51    1
    54    22    52    1
    55    22    53    1
    56    22    54    1
