@<TRIPOS>MOLECULE
IMPHY008923
 31 34 0 0 0
SMALL
GASTEIGER
****
Created with ChemWriter - http://chemwriter.com
@<TRIPOS>ATOM
      1 C           3.4027    2.4871    0.0000 C.3     1  UNL1        0.0325
      2 C           2.4783    2.1085    0.0000 C.3     1  UNL1        0.0840
      3 C           4.2413    2.0051    0.0000 C.3     1  UNL1        0.1433
      4 C           3.4027    3.4533    0.0000 C.3     1  UNL1        0.1494
      5 C           2.5003    1.1819    0.0000 C.3     1  UNL1        0.0715
      6 C           1.6639    2.5575    0.0000 C.3     1  UNL1        0.1723
      7 C           2.6412    2.9955    0.0000 C.3     1  UNL1        0.2119
      8 C           5.5003    1.2304    0.0000 C.2     1  UNL1        0.1779
      9 C           4.2501    1.1115    0.0000 C.2     1  UNL1        0.3227
     10 C           5.0777    2.4893    0.0000 C.3     1  UNL1        0.0180
     11 C           4.2413    3.9376    0.0000 C.3     1  UNL1        0.0328
     12 O           2.5157    3.8407    0.0000 O.3     1  UNL1       -0.2234
     13 C           1.7058    0.6977    0.0000 C.3     1  UNL1        0.0073
     14 C           3.2971    0.8694    0.0000 C.2     1  UNL1        0.2072
     15 C           0.8694    2.0755    0.0000 C.3     1  UNL1        0.0438
     16 O           1.6463    3.1848    0.0000 O.3     1  UNL1       -0.4521
     17 O           3.4027    1.4967    0.0000 O.3     1  UNL1       -0.4481
     18 C           6.7042    2.8987    0.0000 C.2     1  UNL1        0.0088
     19 O           5.7468    0.3257    0.0000 O.2     1  UNL1       -0.2912
     20 O           4.6947    0.4600    0.0000 O.2     1  UNL1       -0.2497
     21 C           5.0777    3.4555    0.0000 C.3     1  UNL1        0.0061
     22 C           0.8914    1.1445    0.0000 C.3     1  UNL1        0.0041
     23 C           0.9464    0.0000    0.0000 C.3     1  UNL1        0.0004
     24 C           2.5025    0.0726    0.0000 C.3     1  UNL1        0.0004
     25 O           3.3411    0.0968    0.0000 O.2     1  UNL1       -0.2883
     26 C           0.9310    3.6206    0.0000 C.2     1  UNL1        0.3174
     27 C           7.7034    3.3103    0.0000 C.2     1  UNL1       -0.0020
     28 O           0.9310    4.1753    0.0000 O.2     1  UNL1       -0.2501
     29 C           0.0000    3.2332    0.0000 C.3     1  UNL1        0.1212
     30 H           3.9552    2.8987    0.0000 H       1  UNL1        0.0354
     31 H           5.3506    4.2039    0.0000 H       1  UNL1        0.0363
@<TRIPOS>BOND
     1     1     2    1
     2     1     3    1
     3     1     4    1
     4     1    30    1
     5     2     5    1
     6     2     6    1
     7     2     7    1
     8     3     8    1
     9     3     9    1
    10     3    10    1
    11     4    11    1
    12     4    12    1
    13     5    13    1
    14     5    14    1
    15     6    15    1
    16     6    16    1
    17     7    17    1
    18     8    18    1
    19     8    19    2
    20     9    17    1
    21     9    20    2
    22    10    21    1
    23    11    21    1
    24    13    22    1
    25    13    23    1
    26    13    24    1
    27    14    25    2
    28    15    22    1
    29    16    26    1
    30    18    21    1
    31    18    27    2
    32    21    31    1
    33    26    28    2
    34    26    29    1
