@<TRIPOS>MOLECULE
IMPHY013964
 20 19 0 0 0
SMALL
GASTEIGER

@<TRIPOS>ATOM
      1 O           7.7331    0.5950    0.0000 O.3     1  UNL1       -0.3949
      2 N           4.2690    0.5950    0.0000 N.pl3   1  UNL1       -0.2787
      3 N           2.5369    0.5950    0.0000 N.pl3   1  UNL1       -0.2919
      4 N           3.4030   -0.9050    0.0000 N.pl3   1  UNL1       -0.2919
      5 C           6.0010    0.5950    0.0000 C.3     1  UNL1        0.0010
      6 C           5.1350    0.0950    0.0000 C.3     1  UNL1        0.0666
      7 C           6.8671    0.0950    0.0000 C.3     1  UNL1        0.0471
      8 C           3.4030    0.0950    0.0000 C.cat   1  UNL1        0.3410
      9 H           6.3996    1.0700    0.0000 H       1  UNL1        0.0318
     10 H           5.6025    1.0700    0.0000 H       1  UNL1        0.0318
     11 H           4.7365   -0.3799    0.0000 H       1  UNL1        0.0655
     12 H           5.5335   -0.3799    0.0000 H       1  UNL1        0.0655
     13 H           6.4685   -0.3799    0.0000 H       1  UNL1        0.0558
     14 H           7.2656   -0.3799    0.0000 H       1  UNL1        0.0558
     15 H           4.2690    1.2150    0.0000 H       1  UNL1        0.2578
     16 H           8.2700    0.2850    0.0000 H       1  UNL1        0.2094
     17 H           2.0000    0.2850    0.0000 H       1  UNL1        0.2545
     18 H           2.5369    1.2150    0.0000 H       1  UNL1        0.2545
     19 H           2.8660   -1.2150    0.0000 H       1  UNL1        0.2545
     20 H           3.9399   -1.2150    0.0000 H       1  UNL1        0.2545
@<TRIPOS>UNITY_ATOM_ATTR
2 1
charge 1
@<TRIPOS>BOND
     1     1     7    1
     2     1    16    1
     3     2     6    1
     4     2     8    2
     5     2    15    1
     6     3     8    1
     7     3    17    1
     8     3    18    1
     9     4     8    1
    10     4    19    1
    11     4    20    1
    12     5     6    1
    13     5     7    1
    14     5     9    1
    15     5    10    1
    16     6    11    1
    17     6    12    1
    18     7    13    1
    19     7    14    1
