@<TRIPOS>MOLECULE
IMPHY000407
 37 37 0 0 0
SMALL
GASTEIGER

@<TRIPOS>ATOM
      1 S           6.0010   -0.5000    0.0000 S.3     1  UNL1       -0.1271
      2 S           7.7331    3.5000    0.0000 S.3     1  UNL1       -0.1783
      3 O           4.2690   -0.5000    0.0000 O.3     1  UNL1       -0.3553
      4 O           4.2690   -3.5000    0.0000 O.3     1  UNL1       -0.3865
      5 O           2.5369   -2.5000    0.0000 O.3     1  UNL1       -0.3865
      6 O           6.0010   -2.5000    0.0000 O.3     1  UNL1       -0.3857
      7 O           2.5369    0.5000    0.0000 O.3     1  UNL1       -0.3924
      8 C           4.2690   -2.5000    0.0000 C.3     1  UNL1        0.1126
      9 C           3.4030   -2.0000    0.0000 C.3     1  UNL1        0.1118
     10 C           5.1350   -2.0000    0.0000 C.3     1  UNL1        0.1188
     11 C           3.4030   -1.0000    0.0000 C.3     1  UNL1        0.1115
     12 C           5.1350   -1.0000    0.0000 C.3     1  UNL1        0.1330
     13 C           2.5369   -0.5000    0.0000 C.3     1  UNL1        0.0730
     14 C           6.0010    0.5000    0.0000 C.3     1  UNL1       -0.0038
     15 C           6.8671    1.0000    0.0000 C.3     1  UNL1       -0.0432
     16 C           6.8671    2.0000    0.0000 C.3     1  UNL1       -0.0435
     17 C           7.7331    2.5000    0.0000 C.3     1  UNL1       -0.0093
     18 H           4.8059   -2.8100    0.0000 H       1  UNL1        0.0647
     19 H           3.4030   -2.6200    0.0000 H       1  UNL1        0.0647
     20 H           5.6720   -1.6900    0.0000 H       1  UNL1        0.0655
     21 H           3.4030   -0.3800    0.0000 H       1  UNL1        0.0646
     22 H           5.1350   -0.3800    0.0000 H       1  UNL1        0.0740
     23 H           1.9264   -0.3923    0.0000 H       1  UNL1        0.0584
     24 H           2.3249   -1.0826    0.0000 H       1  UNL1        0.0584
     25 H           5.7890    1.0826    0.0000 H       1  UNL1        0.0377
     26 H           5.3905    0.3923    0.0000 H       1  UNL1        0.0377
     27 H           3.7320   -3.8100    0.0000 H       1  UNL1        0.2100
     28 H           2.0000   -2.1900    0.0000 H       1  UNL1        0.2100
     29 H           6.5380   -2.1900    0.0000 H       1  UNL1        0.2100
     30 H           7.0791    0.4174    0.0000 H       1  UNL1        0.0273
     31 H           7.4776    1.1077    0.0000 H       1  UNL1        0.0273
     32 H           6.6550    2.5826    0.0000 H       1  UNL1        0.0273
     33 H           6.2565    1.8923    0.0000 H       1  UNL1        0.0273
     34 H           2.0000    0.8100    0.0000 H       1  UNL1        0.2095
     35 H           7.9451    1.9174    0.0000 H       1  UNL1        0.0374
     36 H           8.3437    2.6077    0.0000 H       1  UNL1        0.0374
     37 H           8.2700    3.8100    0.0000 H       1  UNL1        0.1016
@<TRIPOS>BOND
     1    12     1    1
     2     1    14    1
     3     2    17    1
     4     2    37    1
     5     3    11    1
     6     3    12    1
     7     8     4    1
     8     4    27    1
     9     9     5    1
    10     5    28    1
    11    10     6    1
    12     6    29    1
    13     7    13    1
    14     7    34    1
    15     8     9    1
    16     8    10    1
    17     8    18    1
    18     9    11    1
    19     9    19    1
    20    10    12    1
    21    10    20    1
    22    11    13    1
    23    11    21    1
    24    12    22    1
    25    13    23    1
    26    13    24    1
    27    14    15    1
    28    14    25    1
    29    14    26    1
    30    15    16    1
    31    15    30    1
    32    15    31    1
    33    16    17    1
    34    16    32    1
    35    16    33    1
    36    17    35    1
    37    17    36    1
