@<TRIPOS>MOLECULE
IMPHY013768
 16 16 0 0 0
SMALL
GASTEIGER

@<TRIPOS>ATOM
      1 N           5.1350   -0.3100    0.0000 N.ar    1  UNL1       -0.1999
      2 N           3.4030   -0.3100    0.0000 N.ar    1  UNL1       -0.1999
      3 N           4.2690    1.1900    0.0000 N.ar    1  UNL1       -0.1815
      4 N           6.0010    1.1900    0.0000 N.pl3   1  UNL1       -0.3274
      5 N           2.5369    1.1900    0.0000 N.pl3   1  UNL1       -0.3274
      6 C           4.2690   -0.8100    0.0000 C.ar    1  UNL1        0.1331
      7 C           5.1350    0.6900    0.0000 C.ar    1  UNL1        0.2171
      8 C           3.4030    0.6900    0.0000 C.ar    1  UNL1        0.2171
      9 C           4.2690   -1.8100    0.0000 C.3     1  UNL1       -0.0044
     10 H           3.6490   -1.8100    0.0000 H       1  UNL1        0.0308
     11 H           4.2690   -2.4300    0.0000 H       1  UNL1        0.0308
     12 H           4.8890   -1.8100    0.0000 H       1  UNL1        0.0308
     13 H           6.5380    0.8800    0.0000 H       1  UNL1        0.1452
     14 H           6.0010    1.8100    0.0000 H       1  UNL1        0.1452
     15 H           2.0000    0.8800    0.0000 H       1  UNL1        0.1452
     16 H           2.5369    1.8100    0.0000 H       1  UNL1        0.1452
@<TRIPOS>BOND
     1     1     6   ar
     2     1     7   ar
     3     2     6   ar
     4     2     8   ar
     5     3     7   ar
     6     3     8   ar
     7     4     7    1
     8     4    13    1
     9     4    14    1
    10     5     8    1
    11     5    15    1
    12     5    16    1
    13     6     9    1
    14     9    10    1
    15     9    11    1
    16     9    12    1
