@<TRIPOS>MOLECULE
IMPHY015579
 30 30 0 0 0
SMALL
GASTEIGER

@<TRIPOS>ATOM
      1 O           2.8660   -1.7500    0.0000 O.3     1  UNL1       -0.4601
      2 O           3.7320   -3.2500    0.0000 O.2     1  UNL1       -0.2512
      3 C           3.7320    2.7500    0.0000 C.3     1  UNL1       -0.0215
      4 C           3.7320    1.7500    0.0000 C.ar    1  UNL1       -0.0448
      5 C           4.5981    3.2500    0.0000 C.3     1  UNL1       -0.0587
      6 C           2.8660    3.2500    0.0000 C.3     1  UNL1       -0.0587
      7 C           2.8660    1.2500    0.0000 C.ar    1  UNL1       -0.0580
      8 C           4.5981    1.2500    0.0000 C.ar    1  UNL1       -0.0580
      9 C           3.7320   -0.2500    0.0000 C.ar    1  UNL1       -0.0103
     10 C           2.8660    0.2500    0.0000 C.ar    1  UNL1       -0.0551
     11 C           4.5981    0.2500    0.0000 C.ar    1  UNL1       -0.0551
     12 C           3.7320   -1.2500    0.0000 C.3     1  UNL1        0.1175
     13 C           2.8660   -2.7500    0.0000 C.2     1  UNL1        0.3043
     14 C           2.0000   -3.2500    0.0000 C.3     1  UNL1        0.0332
     15 H           3.7320    3.3700    0.0000 H       1  UNL1        0.0343
     16 H           4.9081    2.7131    0.0000 H       1  UNL1        0.0235
     17 H           5.1350    3.5600    0.0000 H       1  UNL1        0.0235
     18 H           4.2881    3.7869    0.0000 H       1  UNL1        0.0235
     19 H           3.1760    3.7869    0.0000 H       1  UNL1        0.0235
     20 H           2.3291    3.5600    0.0000 H       1  UNL1        0.0235
     21 H           2.5560    2.7131    0.0000 H       1  UNL1        0.0235
     22 H           2.3291    1.5600    0.0000 H       1  UNL1        0.0620
     23 H           5.1350    1.5600    0.0000 H       1  UNL1        0.0620
     24 H           2.3291   -0.0600    0.0000 H       1  UNL1        0.0621
     25 H           5.1350   -0.0600    0.0000 H       1  UNL1        0.0621
     26 H           3.9441   -1.8326    0.0000 H       1  UNL1        0.0749
     27 H           4.3426   -1.1423    0.0000 H       1  UNL1        0.0749
     28 H           1.6900   -2.7131    0.0000 H       1  UNL1        0.0342
     29 H           1.4631   -3.5600    0.0000 H       1  UNL1        0.0342
     30 H           2.3100   -3.7869    0.0000 H       1  UNL1        0.0342
@<TRIPOS>BOND
     1     1    12    1
     2     1    13    1
     3     2    13    2
     4     3     4    1
     5     3     5    1
     6     3     6    1
     7     3    15    1
     8     4     7   ar
     9     4     8   ar
    10     5    16    1
    11     5    17    1
    12     5    18    1
    13     6    19    1
    14     6    20    1
    15     6    21    1
    16     7    10   ar
    17     7    22    1
    18     8    11   ar
    19     8    23    1
    20     9    10   ar
    21     9    11   ar
    22     9    12    1
    23    10    24    1
    24    11    25    1
    25    12    26    1
    26    12    27    1
    27    13    14    1
    28    14    28    1
    29    14    29    1
    30    14    30    1
