@<TRIPOS>MOLECULE
IMPHY011611
 36 38 0 0 0
SMALL
GASTEIGER

@<TRIPOS>ATOM
      1 O           6.0682   -0.2704    0.0000 O.3     1  UNL1       -0.4809
      2 O           7.8003    1.7296    0.0000 O.3     1  UNL1       -0.3849
      3 O           6.0682    2.7296    0.0000 O.3     1  UNL1       -0.3842
      4 O           4.3198    2.7642    0.0000 O.3     1  UNL1       -0.5062
      5 O           2.5381   -0.2945    0.0000 O.3     1  UNL1       -0.5065
      6 O           8.6663   -2.7704    0.0000 O.3     1  UNL1       -0.5033
      7 O          10.3984   -1.7704    0.0000 O.3     1  UNL1       -0.5033
      8 C           6.9343    1.2296    0.0000 C.3     1  UNL1        0.1262
      9 C           6.9343    0.2296    0.0000 C.3     1  UNL1        0.1537
     10 C           6.0682    1.7296    0.0000 C.3     1  UNL1        0.1166
     11 C           5.2022    1.2296    0.0000 C.ar    1  UNL1        0.0667
     12 C           5.2022    0.2296    0.0000 C.ar    1  UNL1        0.1342
     13 C           7.8003   -0.2704    0.0000 C.ar    1  UNL1       -0.0011
     14 C           4.3083    1.7643    0.0000 C.ar    1  UNL1        0.1295
     15 C           4.3083   -0.3051    0.0000 C.ar    1  UNL1        0.0222
     16 C           7.8003   -1.2704    0.0000 C.ar    1  UNL1       -0.0098
     17 C           8.6663    0.2296    0.0000 C.ar    1  UNL1       -0.0513
     18 C           3.4022    1.2504    0.0000 C.ar    1  UNL1        0.0219
     19 C           3.4022    0.2088    0.0000 C.ar    1  UNL1        0.1238
     20 C           8.6663   -1.7704    0.0000 C.ar    1  UNL1        0.1586
     21 C           9.5323   -0.2704    0.0000 C.ar    1  UNL1       -0.0162
     22 C           9.5323   -1.2704    0.0000 C.ar    1  UNL1        0.1582
     23 H           6.9343    1.8496    0.0000 H       1  UNL1        0.0663
     24 H           6.9343   -0.3904    0.0000 H       1  UNL1        0.0812
     25 H           5.5313    2.0396    0.0000 H       1  UNL1        0.0673
     26 H           4.3154   -0.9250    0.0000 H       1  UNL1        0.0691
     27 H           7.8003    2.3496    0.0000 H       1  UNL1        0.2101
     28 H           7.2634   -1.5804    0.0000 H       1  UNL1        0.0659
     29 H           8.6663    0.8496    0.0000 H       1  UNL1        0.0623
     30 H           6.6052    3.0396    0.0000 H       1  UNL1        0.2103
     31 H           2.8665    1.5625    0.0000 H       1  UNL1        0.0691
     32 H          10.0693    0.0396    0.0000 H       1  UNL1        0.0655
     33 H           3.7865    3.0804    0.0000 H       1  UNL1        0.2922
     34 H           2.0000    0.0134    0.0000 H       1  UNL1        0.2921
     35 H           8.1294   -3.0804    0.0000 H       1  UNL1        0.2923
     36 H          10.9353   -1.4604    0.0000 H       1  UNL1        0.2923
@<TRIPOS>BOND
     1     1     9    1
     2     1    12    1
     3     8     2    1
     4     2    27    1
     5    10     3    1
     6     3    30    1
     7     4    14    1
     8     4    33    1
     9     5    19    1
    10     5    34    1
    11     6    20    1
    12     6    35    1
    13     7    22    1
    14     7    36    1
    15     8     9    1
    16     8    10    1
    17     8    23    1
    18     9    13    1
    19     9    24    1
    20    10    11    1
    21    10    25    1
    22    11    12   ar
    23    11    14   ar
    24    12    15   ar
    25    13    16   ar
    26    13    17   ar
    27    14    18   ar
    28    15    19   ar
    29    15    26    1
    30    16    20   ar
    31    16    28    1
    32    17    21   ar
    33    17    29    1
    34    18    19   ar
    35    18    31    1
    36    20    22   ar
    37    21    22   ar
    38    21    32    1
