@<TRIPOS>MOLECULE
IMPHY009330
 43 44 0 0 0
SMALL
GASTEIGER

@<TRIPOS>ATOM
      1 O           2.6200    2.0090    0.0000 O.3     1  UNL1       -0.3885
      2 O           3.1200   -1.8571    0.0000 O.3     1  UNL1       -0.3912
      3 C           3.9860   -0.3571    0.0000 C.3     1  UNL1        0.0030
      4 C           3.9860    0.6429    0.0000 C.3     1  UNL1       -0.0007
      5 C           3.1200    1.1429    0.0000 C.3     1  UNL1        0.0671
      6 C           3.1200   -0.8571    0.0000 C.3     1  UNL1        0.0613
      7 C           4.8800    1.1776    0.0000 C.3     1  UNL1       -0.0255
      8 C           2.2540    0.6429    0.0000 C.3     1  UNL1       -0.0216
      9 C           4.8800   -0.8917    0.0000 C.3     1  UNL1       -0.0264
     10 C           2.2540   -0.3571    0.0000 C.3     1  UNL1       -0.0237
     11 C           3.9860   -1.3571    0.0000 C.3     1  UNL1       -0.0566
     12 C           5.7860    0.6637    0.0000 C.2     1  UNL1       -0.0705
     13 C           5.7860   -0.3779    0.0000 C.2     1  UNL1       -0.0839
     14 C           3.6200    2.0090    0.0000 C.3     1  UNL1       -0.0358
     15 C           6.6501    1.1671    0.0000 C.3     1  UNL1       -0.0256
     16 C           7.5181    0.6704    0.0000 C.3     1  UNL1       -0.0590
     17 C           6.6463    2.1671    0.0000 C.3     1  UNL1       -0.0590
     18 H           3.9795    1.4929    0.0000 H       1  UNL1        0.0338
     19 H           2.5831   -1.1671    0.0000 H       1  UNL1        0.0599
     20 H           5.2736    1.6566    0.0000 H       1  UNL1        0.0314
     21 H           4.4754    1.6474    0.0000 H       1  UNL1        0.0314
     22 H           2.0419    1.2255    0.0000 H       1  UNL1        0.0294
     23 H           1.6434    0.5353    0.0000 H       1  UNL1        0.0294
     24 H           4.4754   -1.3615    0.0000 H       1  UNL1        0.0314
     25 H           5.2736   -1.3708    0.0000 H       1  UNL1        0.0314
     26 H           1.6434   -0.2494    0.0000 H       1  UNL1        0.0291
     27 H           2.0419   -0.9397    0.0000 H       1  UNL1        0.0291
     28 H           3.3660   -1.3571    0.0000 H       1  UNL1        0.0236
     29 H           3.9860   -1.9771    0.0000 H       1  UNL1        0.0236
     30 H           4.6060   -1.3571    0.0000 H       1  UNL1        0.0236
     31 H           6.3218   -0.6900    0.0000 H       1  UNL1        0.0572
     32 H           4.1569    1.6990    0.0000 H       1  UNL1        0.0257
     33 H           3.9300    2.5459    0.0000 H       1  UNL1        0.0257
     34 H           3.0831    2.3190    0.0000 H       1  UNL1        0.0257
     35 H           7.1859    1.4792    0.0000 H       1  UNL1        0.0340
     36 H           2.0000    2.0090    0.0000 H       1  UNL1        0.2102
     37 H           2.5831   -2.1671    0.0000 H       1  UNL1        0.2098
     38 H           7.2101    0.1323    0.0000 H       1  UNL1        0.0235
     39 H           8.0562    0.3625    0.0000 H       1  UNL1        0.0235
     40 H           7.8260    1.2086    0.0000 H       1  UNL1        0.0235
     41 H           7.2663    2.1695    0.0000 H       1  UNL1        0.0235
     42 H           6.6439    2.7871    0.0000 H       1  UNL1        0.0235
     43 H           6.0263    2.1647    0.0000 H       1  UNL1        0.0235
@<TRIPOS>BOND
     1     5     1    1
     2     1    36    1
     3     6     2    1
     4     2    37    1
     5     3     4    1
     6     3     6    1
     7     3     9    1
     8     3    11    1
     9     4     5    1
    10     4     7    1
    11     4    18    1
    12     5     8    1
    13     5    14    1
    14     6    10    1
    15     6    19    1
    16     7    12    1
    17     7    20    1
    18     7    21    1
    19     8    10    1
    20     8    22    1
    21     8    23    1
    22     9    13    1
    23     9    24    1
    24     9    25    1
    25    10    26    1
    26    10    27    1
    27    11    28    1
    28    11    29    1
    29    11    30    1
    30    12    13    2
    31    12    15    1
    32    13    31    1
    33    14    32    1
    34    14    33    1
    35    14    34    1
    36    15    16    1
    37    15    17    1
    38    15    35    1
    39    16    38    1
    40    16    39    1
    41    16    40    1
    42    17    41    1
    43    17    42    1
    44    17    43    1
