@<TRIPOS>MOLECULE
IMPHY000517
 32 34 0 0 0
SMALL
GASTEIGER

@<TRIPOS>ATOM
      1 C           5.0770    2.7435    0.0000 C.3     1  UNL1        0.2066
      2 C           5.5840    3.6192    0.0000 C.3     1  UNL1        0.2663
      3 C           4.0655    2.7435    0.0000 C.3     1  UNL1        0.2166
      4 O           3.0055    0.5967    0.0000 O.3     1  UNL1       -0.3231
      5 O           5.5791    4.5070    0.0000 O.3     1  UNL1       -0.3258
      6 O           5.0746    4.4948    0.0000 O.3     1  UNL1       -0.3258
      7 C           3.5609    3.6192    0.0000 C.3     1  UNL1        0.2142
      8 O           4.0728    3.7162    0.0000 O.3     1  UNL1       -0.2175
      9 C           2.4306    1.5646    0.0000 C.3     1  UNL1        0.2700
     10 C           5.5791    5.3754    0.0000 C.3     1  UNL1        0.1803
     11 C           4.0655    4.4948    0.0000 C.3     1  UNL1        0.1803
     12 O           3.5609    2.4815    0.0000 O.3     1  UNL1       -0.2176
     13 C           2.0085    0.8272    0.0000 C.3     1  UNL1        0.2405
     14 O           2.0085    2.3044    0.0000 O.3     1  UNL1       -0.3170
     15 C           6.0885    4.5021    0.0000 C.3     1  UNL1        0.2168
     16 C           6.0788    6.2583    0.0000 C.3     1  UNL1        0.1771
     17 C           1.1546    0.8272    0.0000 C.3     1  UNL1        0.2171
     18 O           2.0158    0.0000    0.0000 O.3     1  UNL1       -0.2149
     19 C           1.1546    2.3044    0.0000 C.3     1  UNL1        0.2496
     20 C           7.1025    4.5070    0.0000 C.3     1  UNL1        0.2433
     21 O           6.0934    5.4312    0.0000 O.3     1  UNL1       -0.2175
     22 O           7.0928    6.2632    0.0000 O.3     1  UNL1       -0.3239
     23 C           0.7277    1.5646    0.0000 C.3     1  UNL1        0.1864
     24 O           1.1668    1.6568    0.0000 O.3     1  UNL1       -0.2175
     25 C           1.1668    3.1752    0.0000 C.2     1  UNL1        0.3940
     26 C           7.6070    5.3826    0.0000 C.3     1  UNL1        0.3023
     27 O           7.1025    3.5900    0.0000 O.3     1  UNL1       -0.2148
     28 O           0.7277    0.5506    0.0000 O.3     1  UNL1       -0.3478
     29 O           1.8969    3.5900    0.0000 O.co2   1  UNL1       -0.2429
     30 O           0.4706    3.5415    0.0000 O.co2   1  UNL1       -0.2429
     31 O           8.4900    5.3826    0.0000 O.3     1  UNL1       -0.1869
     32 C           0.0000    0.0898    0.0000 C.3     1  UNL1        0.1742
@<TRIPOS>BOND
     1     1     2    1
     2     1     3    1
     3     1     4    1
     4     2     5    1
     5     2     6    1
     6     3     7    1
     7     3     8    1
     8     6    11    1
     9     7    11    1
    10     7    12    1
    11     9     4    1
    12     9    13    1
    13     9    14    1
    14    10     5    1
    15    10    15    1
    16    10    16    1
    17    13    17    1
    18    13    18    1
    19    14    19    1
    20    15    20    1
    21    15    21    1
    22    16    22    1
    23    17    23    1
    24    17    24    1
    25    19    23    1
    26    19    25    1
    27    20    26    1
    28    20    27    1
    29    22    26    1
    30    23    28    1
    31    25    29   ar
    32    25    30   ar
    33    26    31    1
    34    28    32    1
