@<TRIPOS>MOLECULE
IMPHY016485
 44 45 0 0 0
SMALL
GASTEIGER

@<TRIPOS>ATOM
      1 O           5.5878   -0.8090    0.0000 O.3     1  UNL1       -0.4496
      2 O           2.0000   -0.0000    0.0000 O.2     1  UNL1       -0.2873
      3 O           7.3479   -1.0878    0.0000 O.2     1  UNL1       -0.2508
      4 C           5.0000   -0.0000    0.0000 C.3     1  UNL1        0.1516
      5 C           5.5878    0.8090    0.0000 C.3     1  UNL1        0.0047
      6 C           3.5000    0.8660    0.0000 C.2     1  UNL1        0.0050
      7 C           3.5000   -0.8660    0.0000 C.2     1  UNL1        0.0050
      8 C           3.0000    1.7320    0.0000 C.3     1  UNL1       -0.0092
      9 C           3.0000   -1.7320    0.0000 C.3     1  UNL1       -0.0092
     10 C           4.5000    0.8660    0.0000 C.2     1  UNL1       -0.0297
     11 C           4.5000   -0.8660    0.0000 C.2     1  UNL1       -0.0297
     12 C           3.0000   -0.0000    0.0000 C.2     1  UNL1        0.1859
     13 C           6.5388    0.5000    0.0000 C.3     1  UNL1        0.0492
     14 C           6.5388   -0.5000    0.0000 C.2     1  UNL1        0.3083
     15 C           2.5000    2.5981    0.0000 C.3     1  UNL1       -0.0559
     16 C           3.8660    2.2320    0.0000 C.3     1  UNL1       -0.0559
     17 C           2.1340    1.2320    0.0000 C.3     1  UNL1       -0.0559
     18 C           2.5000   -2.5981    0.0000 C.3     1  UNL1       -0.0559
     19 C           3.8660   -2.2320    0.0000 C.3     1  UNL1       -0.0559
     20 C           2.1340   -1.2320    0.0000 C.3     1  UNL1       -0.0559
     21 H           5.8400    1.3754    0.0000 H       1  UNL1        0.0315
     22 H           5.0508    1.1190    0.0000 H       1  UNL1        0.0315
     23 H           4.8100    1.4030    0.0000 H       1  UNL1        0.0619
     24 H           4.8100   -1.4030    0.0000 H       1  UNL1        0.0619
     25 H           7.1554    0.4352    0.0000 H       1  UNL1        0.0379
     26 H           6.6678    1.1064    0.0000 H       1  UNL1        0.0379
     27 H           3.0369    2.9081    0.0000 H       1  UNL1        0.0238
     28 H           2.1900    3.1350    0.0000 H       1  UNL1        0.0238
     29 H           1.9631    2.2881    0.0000 H       1  UNL1        0.0238
     30 H           4.1760    1.6951    0.0000 H       1  UNL1        0.0238
     31 H           4.4030    2.5420    0.0000 H       1  UNL1        0.0238
     32 H           3.5560    2.7690    0.0000 H       1  UNL1        0.0238
     33 H           1.8240    1.7690    0.0000 H       1  UNL1        0.0238
     34 H           1.5970    0.9221    0.0000 H       1  UNL1        0.0238
     35 H           2.4440    0.6951    0.0000 H       1  UNL1        0.0238
     36 H           1.9631   -2.2881    0.0000 H       1  UNL1        0.0238
     37 H           2.1900   -3.1350    0.0000 H       1  UNL1        0.0238
     38 H           3.0369   -2.9081    0.0000 H       1  UNL1        0.0238
     39 H           3.5560   -2.7690    0.0000 H       1  UNL1        0.0238
     40 H           4.4030   -2.5420    0.0000 H       1  UNL1        0.0238
     41 H           4.1760   -1.6951    0.0000 H       1  UNL1        0.0238
     42 H           2.4440   -0.6951    0.0000 H       1  UNL1        0.0238
     43 H           1.5970   -0.9221    0.0000 H       1  UNL1        0.0238
     44 H           1.8240   -1.7690    0.0000 H       1  UNL1        0.0238
@<TRIPOS>BOND
     1     1     4    1
     2     1    14    1
     3     2    12    2
     4     3    14    2
     5     4     5    1
     6     4    10    1
     7     4    11    1
     8     5    13    1
     9     5    21    1
    10     5    22    1
    11     6     8    1
    12     6    10    2
    13     6    12    1
    14     7     9    1
    15     7    11    2
    16     7    12    1
    17     8    15    1
    18     8    16    1
    19     8    17    1
    20     9    18    1
    21     9    19    1
    22     9    20    1
    23    10    23    1
    24    11    24    1
    25    13    14    1
    26    13    25    1
    27    13    26    1
    28    15    27    1
    29    15    28    1
    30    15    29    1
    31    16    30    1
    32    16    31    1
    33    16    32    1
    34    17    33    1
    35    17    34    1
    36    17    35    1
    37    18    36    1
    38    18    37    1
    39    18    38    1
    40    19    39    1
    41    19    40    1
    42    19    41    1
    43    20    42    1
    44    20    43    1
    45    20    44    1
