@<TRIPOS>MOLECULE
IMPHY013357
 20 20 0 0 0
SMALL
GASTEIGER

@<TRIPOS>ATOM
      1 O           2.0000   -0.7094    0.0000 O.co2   1  UNL1       -0.5441
      2 OXT         2.8660    0.7906    0.0000 O.co2   1  UNL1       -0.5441
      3 N           4.5981    0.7906    0.0000 N.ar    1  UNL1       -0.2657
      4 N           3.7320   -1.7094    0.0000 N.4     1  UNL1        0.2262
      5 N           5.4071    1.3784    0.0000 N.ar    1  UNL1       -0.1795
      6 CA          3.7320   -0.7094    0.0000 C.3     1  UNL1        0.0359
      7 C           4.5981   -0.2094    0.0000 C.3     1  UNL1        0.0895
      8 C           2.8660   -0.2094    0.0000 C.2     1  UNL1        0.0912
      9 C           3.7891    1.3784    0.0000 C.ar    1  UNL1        0.0257
     10 C           4.0981    2.3294    0.0000 C.ar    1  UNL1       -0.0242
     11 C           5.0981    2.3294    0.0000 C.ar    1  UNL1        0.0494
     12 HA          4.2690   -1.0194    0.0000 H       1  UNL1        0.0933
     13 H           4.8101   -0.7920    0.0000 H       1  UNL1        0.0569
     14 H           5.2087   -0.1018    0.0000 H       1  UNL1        0.0569
     15 H1          3.7320   -2.3294    0.0000 H       1  UNL1        0.2001
     16 H2          3.1120   -1.7094    0.0000 H       1  UNL1        0.2001
     17 H3          4.3520   -1.7094    0.0000 H       1  UNL1        0.2001
     18 H           3.1994    1.1868    0.0000 H       1  UNL1        0.0826
     19 H           3.7336    2.8310    0.0000 H       1  UNL1        0.0648
     20 H           5.4625    2.8310    0.0000 H       1  UNL1        0.0848
@<TRIPOS>UNITY_ATOM_ATTR
1 1
charge -1
4 1
charge 1
@<TRIPOS>BOND
     1     1     8   ar
     2     2     8   ar
     3     3     5   ar
     4     3     7    1
     5     3     9   ar
     6     6     4    1
     7     4    15    1
     8     4    16    1
     9     4    17    1
    10     5    11   ar
    11     6     7    1
    12     6     8    1
    13     6    12    1
    14     7    13    1
    15     7    14    1
    16     9    10   ar
    17     9    18    1
    18    10    11   ar
    19    10    19    1
    20    11    20    1
