@<TRIPOS>MOLECULE
IMPHY004703
 14 14 0 0 0
SMALL
GASTEIGER

@<TRIPOS>ATOM
      1 O           3.7601   -1.4571    0.0000 O.3     1  UNL1       -0.4601
      2 O           4.8479    0.8907    0.0000 O.3     1  UNL1       -0.3853
      3 O           2.6723    0.8907    0.0000 O.3     1  UNL1       -0.3783
      4 O           2.0000   -1.1784    0.0000 O.2     1  UNL1       -0.2478
      5 C           4.2601    0.0817    0.0000 C.3     1  UNL1        0.1254
      6 C           3.2601    0.0817    0.0000 C.3     1  UNL1        0.1807
      7 C           4.5691   -0.8693    0.0000 C.3     1  UNL1        0.1213
      8 C           2.9511   -0.8693    0.0000 C.2     1  UNL1        0.3388
      9 H           4.8724   -0.0153    0.0000 H       1  UNL1        0.0659
     10 H           2.6477   -0.0153    0.0000 H       1  UNL1        0.0738
     11 H           4.8791   -1.4063    0.0000 H       1  UNL1        0.0725
     12 H           5.1355   -0.6172    0.0000 H       1  UNL1        0.0725
     13 H           5.4645    0.8259    0.0000 H       1  UNL1        0.2101
     14 H           2.9245    1.4571    0.0000 H       1  UNL1        0.2106
@<TRIPOS>BOND
     1     1     7    1
     2     1     8    1
     3     5     2    1
     4     2    13    1
     5     6     3    1
     6     3    14    1
     7     4     8    2
     8     5     6    1
     9     5     7    1
    10     5     9    1
    11     6     8    1
    12     6    10    1
    13     7    11    1
    14     7    12    1
