@<TRIPOS>MOLECULE
IMPHY000703
 94 95 0 0 0
SMALL
GASTEIGER

@<TRIPOS>ATOM
      1 O           9.3244    2.9574    0.0000 O.2     1  UNL1       -0.2948
      2 O          10.7367    1.5856    0.0000 O.2     1  UNL1       -0.5096
      3 O          10.0371   -1.6058    0.0000 O.2     1  UNL1       -0.2907
      4 O           9.1791   -1.6422    0.0000 O.2     1  UNL1       -0.2956
      5 C           7.0749   -0.6518    0.0000 C.3     1  UNL1       -0.0023
      6 C           8.3466    0.1428    0.0000 C.3     1  UNL1        0.1555
      7 C           6.2978   -0.0225    0.0000 C.3     1  UNL1       -0.0292
      8 C           8.0878    1.1087    0.0000 C.3     1  UNL1        0.0912
      9 C           6.6561    0.9111    0.0000 C.3     1  UNL1       -0.0297
     10 C           8.8244    2.0914    0.0000 C.2     1  UNL1        0.1683
     11 C           6.5303   -1.4905    0.0000 C.3     1  UNL1       -0.0422
     12 C           7.5289   -1.5428    0.0000 C.3     1  UNL1       -0.0576
     13 C           9.5676   -0.7229    0.0000 C.2     1  UNL1        0.1837
     14 C           5.3318   -0.2813    0.0000 C.3     1  UNL1       -0.0311
     15 C          10.1210    0.7976    0.0000 C.2     1  UNL1        0.1144
     16 C           8.6054   -0.8231    0.0000 C.2     1  UNL1        0.1574
     17 C           7.8290    2.0747    0.0000 C.3     1  UNL1       -0.0151
     18 C          10.3967   -0.1637    0.0000 C.2     1  UNL1        0.0383
     19 C           5.5316   -1.4382    0.0000 C.3     1  UNL1       -0.0340
     20 C           8.3466   -1.7890    0.0000 C.3     1  UNL1        0.0159
     21 C          11.3364   -0.5057    0.0000 C.3     1  UNL1       -0.0027
     22 C           4.6247    0.4258    0.0000 C.2     1  UNL1       -0.0850
     23 C           6.8630    2.3335    0.0000 C.2     1  UNL1       -0.0839
     24 C           9.0537   -2.4962    0.0000 C.3     1  UNL1       -0.0466
     25 C           7.6395   -2.4962    0.0000 C.3     1  UNL1       -0.0557
     26 C           4.9870   -2.2768    0.0000 C.2     1  UNL1       -0.0853
     27 C           3.6588    0.1670    0.0000 C.2     1  UNL1       -0.0796
     28 C           6.6042    3.2994    0.0000 C.2     1  UNL1       -0.0796
     29 C          12.1024    0.1371    0.0000 C.2     1  UNL1       -0.0808
     30 C           8.7949   -3.4621    0.0000 C.3     1  UNL1       -0.0646
     31 C           5.4410   -3.1678    0.0000 C.2     1  UNL1       -0.0796
     32 C           2.9517    0.8741    0.0000 C.3     1  UNL1       -0.0440
     33 C           3.4000   -0.7990    0.0000 C.3     1  UNL1       -0.0440
     34 C          13.0421   -0.2049    0.0000 C.2     1  UNL1       -0.0793
     35 C           5.6383    3.5582    0.0000 C.3     1  UNL1       -0.0440
     36 C           7.3113    4.0065    0.0000 C.3     1  UNL1       -0.0440
     37 C           4.8964   -4.0065    0.0000 C.3     1  UNL1       -0.0440
     38 C           6.4396   -3.2202    0.0000 C.3     1  UNL1       -0.0440
     39 C          13.8081    0.4379    0.0000 C.3     1  UNL1       -0.0440
     40 C          13.2157   -1.1897    0.0000 C.3     1  UNL1       -0.0440
     41 H           5.8829    0.4382    0.0000 H       1  UNL1        0.0310
     42 H           6.0483    1.0334    0.0000 H       1  UNL1        0.0282
     43 H           6.6752    1.5308    0.0000 H       1  UNL1        0.0282
     44 H           7.1010   -1.7328    0.0000 H       1  UNL1        0.0274
     45 H           6.3908   -2.0946    0.0000 H       1  UNL1        0.0274
     46 H           8.0813   -1.2614    0.0000 H       1  UNL1        0.0236
     47 H           7.8104   -2.0953    0.0000 H       1  UNL1        0.0236
     48 H           6.9765   -1.8243    0.0000 H       1  UNL1        0.0236
     49 H           5.5939   -0.8432    0.0000 H       1  UNL1        0.0310
     50 H           4.8240   -0.6369    0.0000 H       1  UNL1        0.0310
     51 H           7.8830    2.6923    0.0000 H       1  UNL1        0.0321
     52 H           8.4466    2.1287    0.0000 H       1  UNL1        0.0321
     53 H           4.9609   -1.1959    0.0000 H       1  UNL1        0.0308
     54 H           5.6711   -0.8341    0.0000 H       1  UNL1        0.0308
     55 H           7.8097   -1.4790    0.0000 H       1  UNL1        0.0375
     56 H          11.8113   -0.9042    0.0000 H       1  UNL1        0.0358
     57 H          11.0264   -1.0426    0.0000 H       1  UNL1        0.0358
     58 H           4.7852    1.0246    0.0000 H       1  UNL1        0.0572
     59 H           6.4246    1.8951    0.0000 H       1  UNL1        0.0572
     60 H           9.4093   -1.9883    0.0000 H       1  UNL1        0.0269
     61 H           9.6156   -2.7582    0.0000 H       1  UNL1        0.0269
     62 H          11.3506    1.4993    0.0000 H       1  UNL1        0.2917
     63 H           8.0779   -2.9346    0.0000 H       1  UNL1        0.0236
     64 H           7.2011   -2.9346    0.0000 H       1  UNL1        0.0236
     65 H           7.2011   -2.0577    0.0000 H       1  UNL1        0.0236
     66 H           4.3679   -2.2444    0.0000 H       1  UNL1        0.0571
     67 H          11.9947    0.7477    0.0000 H       1  UNL1        0.0575
     68 H           9.3938   -3.6225    0.0000 H       1  UNL1        0.0230
     69 H           8.6344   -4.0610    0.0000 H       1  UNL1        0.0230
     70 H           8.1960   -3.3016    0.0000 H       1  UNL1        0.0230
     71 H           2.5133    0.4357    0.0000 H       1  UNL1        0.0274
     72 H           3.9989   -0.9594    0.0000 H       1  UNL1        0.0274
     73 H           3.2395   -1.3978    0.0000 H       1  UNL1        0.0274
     74 H           2.8011   -0.6385    0.0000 H       1  UNL1        0.0274
     75 H           2.5133    1.3125    0.0000 H       1  UNL1        0.0274
     76 H           3.3901    1.3125    0.0000 H       1  UNL1        0.0274
     77 H           5.4778    2.9594    0.0000 H       1  UNL1        0.0274
     78 H           5.0394    3.7187    0.0000 H       1  UNL1        0.0274
     79 H           5.7988    4.1571    0.0000 H       1  UNL1        0.0274
     80 H           6.8729    4.4449    0.0000 H       1  UNL1        0.0274
     81 H           7.7497    4.4449    0.0000 H       1  UNL1        0.0274
     82 H           7.7497    3.5681    0.0000 H       1  UNL1        0.0274
     83 H           5.4163   -4.3442    0.0000 H       1  UNL1        0.0274
     84 H           6.4721   -2.6010    0.0000 H       1  UNL1        0.0274
     85 H           7.0588   -3.2526    0.0000 H       1  UNL1        0.0274
     86 H           6.4072   -3.8393    0.0000 H       1  UNL1        0.0274
     87 H           4.5587   -4.5265    0.0000 H       1  UNL1        0.0274
     88 H           4.3764   -3.6688    0.0000 H       1  UNL1        0.0274
     89 H          13.4096    0.9128    0.0000 H       1  UNL1        0.0274
     90 H          13.8263   -1.0821    0.0000 H       1  UNL1        0.0274
     91 H          13.3234   -1.8003    0.0000 H       1  UNL1        0.0274
     92 H          12.6052   -1.2974    0.0000 H       1  UNL1        0.0274
     93 H          14.2831    0.8364    0.0000 H       1  UNL1        0.0274
     94 H          14.2067   -0.0371    0.0000 H       1  UNL1        0.0274
@<TRIPOS>BOND
     1     1    10    2
     2     2    15    1
     3     2    62    1
     4     3    13    2
     5     4    16    2
     6     5     6    1
     7     5     7    1
     8     5    11    1
     9     5    12    1
    10     6    10    1
    11     6    13    1
    12     6    16    1
    13     7     9    1
    14     7    14    1
    15     7    41    1
    16     8     9    1
    17     8    10    1
    18     8    15    1
    19     8    17    1
    20     9    42    1
    21     9    43    1
    22    11    19    1
    23    11    44    1
    24    11    45    1
    25    12    46    1
    26    12    47    1
    27    12    48    1
    28    13    18    1
    29    14    22    1
    30    14    49    1
    31    14    50    1
    32    15    18    2
    33    16    20    1
    34    17    23    1
    35    17    51    1
    36    17    52    1
    37    18    21    1
    38    19    26    1
    39    19    53    1
    40    19    54    1
    41    20    24    1
    42    20    25    1
    43    20    55    1
    44    21    29    1
    45    21    56    1
    46    21    57    1
    47    22    27    2
    48    22    58    1
    49    23    28    2
    50    23    59    1
    51    24    30    1
    52    24    60    1
    53    24    61    1
    54    25    63    1
    55    25    64    1
    56    25    65    1
    57    26    31    2
    58    26    66    1
    59    27    32    1
    60    27    33    1
    61    28    35    1
    62    28    36    1
    63    29    34    2
    64    29    67    1
    65    30    68    1
    66    30    69    1
    67    30    70    1
    68    31    37    1
    69    31    38    1
    70    32    71    1
    71    32    75    1
    72    32    76    1
    73    33    72    1
    74    33    73    1
    75    33    74    1
    76    34    39    1
    77    34    40    1
    78    35    77    1
    79    35    78    1
    80    35    79    1
    81    36    80    1
    82    36    81    1
    83    36    82    1
    84    37    83    1
    85    37    87    1
    86    37    88    1
    87    38    84    1
    88    38    85    1
    89    38    86    1
    90    39    89    1
    91    39    93    1
    92    39    94    1
    93    40    90    1
    94    40    91    1
    95    40    92    1
