@<TRIPOS>MOLECULE
IMPHY007597
 52 54 0 0 0
SMALL
GASTEIGER

@<TRIPOS>ATOM
      1 O           4.6397   -1.2654    0.0000 O.3     0  UNK0       -0.4602
      2 O           6.0518   -2.3430    0.0000 O.2     0  UNK0       -0.2505
      3 O          10.2840   -1.7538    0.0000 O.3     1  ASN1       -0.4795
      4 OXT         8.9120   -2.8110    0.0000 O.2     1  ASN1       -0.2492
      5 OD1        10.6649   -0.8291    0.0000 O.2     1  ASN1       -0.2760
      6 N           7.6913   -1.2267    0.0000 N.3     1  ASN1       -0.3029
      7 ND2        10.4353    0.8876    0.0000 N.am    1  ASN1       -0.3293
      8 C           3.6027    0.1532    0.0000 C.3     0  UNK0        0.0237
      9 C           4.5037   -0.2807    0.0000 C.3     0  UNK0        0.1136
     10 C           5.4047    0.1532    0.0000 C.3     0  UNK0        0.0111
     11 C           3.3802    1.1282    0.0000 C.3     0  UNK0       -0.0100
     12 C           6.0898   -0.5671    0.0000 C.3     0  UNK0        0.0751
     13 C           5.6272    1.1282    0.0000 C.3     0  UNK0       -0.0423
     14 C           2.3899    1.2147    0.0000 C.3     0  UNK0       -0.0422
     15 C           2.7480   -0.3544    0.0000 C.2     0  UNK0       -0.0694
     16 C           4.0037    1.9100    0.0000 C.2     0  UNK0       -0.0728
     17 C           2.0000    0.3003    0.0000 C.3     0  UNK0       -0.0310
     18 C           5.0037    1.9100    0.0000 C.3     0  UNK0       -0.0313
     19 C           5.6180   -1.4420    0.0000 C.2     0  UNK0        0.3121
     20 C           7.0810   -0.4346    0.0000 C.3     0  UNK0        0.0099
     21 C           2.6567   -1.3502    0.0000 C.2     0  UNK0       -0.0990
     22 C           3.5698    2.8110    0.0000 C.2     0  UNK0       -0.0992
     23 CA          8.6825   -1.0942    0.0000 C.3     1  ASN1        0.1140
     24 CB          9.0633   -0.1695    0.0000 C.3     1  ASN1        0.0495
     25 C           9.2928   -1.8863    0.0000 C.2     1  ASN1        0.3224
     26 CG         10.0545   -0.0370    0.0000 C.2     1  ASN1        0.2125
     27 H           3.6398   -0.6960    0.0000 H       0  UNK0        0.0387
     28 H           3.8167   -0.7812    0.0000 H       0  UNK0        0.0743
     29 H           6.2243    0.3783    0.0000 H       0  UNK0        0.0345
     30 H           3.0451    1.9093    0.0000 H       0  UNK0        0.0353
     31 H           6.2958    0.0177    0.0000 H       0  UNK0        0.0430
     32 H           6.1858    0.8591    0.0000 H       0  UNK0        0.0272
     33 H           6.0138    1.6129    0.0000 H       0  UNK0        0.0272
     34 H           2.5085    1.8232    0.0000 H       0  UNK0        0.0274
     35 H           1.7972    1.3966    0.0000 H       0  UNK0        0.0274
     36 H           1.4584    0.6020    0.0000 H       0  UNK0        0.0310
     37 H           1.6430   -0.2066    0.0000 H       0  UNK0        0.0310
     38 H           5.5623    2.1790    0.0000 H       0  UNK0        0.0310
     39 H           4.8657    2.5144    0.0000 H       0  UNK0        0.0310
     40 H           7.6303   -0.1472    0.0000 H       0  UNK0        0.0432
     41 H           6.8933    0.1564    0.0000 H       0  UNK0        0.0432
     42 H           2.0937   -1.6099    0.0000 H       0  UNK0        0.0535
     43 H           3.1630   -1.7080    0.0000 H       0  UNK0        0.0535
     44 H           3.9191    3.3232    0.0000 H       0  UNK0        0.0534
     45 H           2.9516    2.8573    0.0000 H       0  UNK0        0.0534
     46 H           7.4552   -1.8000    0.0000 H       1  ASN1        0.1227
     47 HA          8.3041   -0.6031    0.0000 H       1  ASN1        0.0581
     48 HB1         9.0891    0.4499    0.0000 H       1  ASN1        0.0379
     49 HB2         8.4577   -0.0365    0.0000 H       1  ASN1        0.0379
     50 H          10.6624   -2.2449    0.0000 H       1  ASN1        0.2951
     51 HD21       11.0499    0.9698    0.0000 H       1  ASN1        0.1449
     52 HD22       10.0569    1.3788    0.0000 H       1  ASN1        0.1449
@<TRIPOS>BOND
     1     1     9    1
     2     1    19    1
     3     2    19    2
     4     3    25    1
     5     3    50    1
     6     4    25    2
     7     5    26    2
     8     6    20    1
     9    23     6    1
    10     6    46    1
    11     7    26   am
    12     7    51    1
    13     7    52    1
    14     8     9    1
    15     8    11    1
    16     8    15    1
    17     8    27    1
    18     9    10    1
    19     9    28    1
    20    10    12    1
    21    10    13    1
    22    10    29    1
    23    11    14    1
    24    11    16    1
    25    11    30    1
    26    12    19    1
    27    12    20    1
    28    12    31    1
    29    13    18    1
    30    13    32    1
    31    13    33    1
    32    14    17    1
    33    14    34    1
    34    14    35    1
    35    15    17    1
    36    15    21    2
    37    16    18    1
    38    16    22    2
    39    17    36    1
    40    17    37    1
    41    18    38    1
    42    18    39    1
    43    20    40    1
    44    20    41    1
    45    21    42    1
    46    21    43    1
    47    22    44    1
    48    22    45    1
    49    23    24    1
    50    23    25    1
    51    23    47    1
    52    24    26    1
    53    24    48    1
    54    24    49    1
