@<TRIPOS>MOLECULE
IMPHY011180
 40 41 0 0 0
SMALL
GASTEIGER

@<TRIPOS>ATOM
      1 O           2.5369    0.7327    0.0000 O.3     1  UNL1       -0.3944
      2 C           6.8671   -0.7673    0.0000 C.3     1  UNL1       -0.0218
      3 C           6.8671    0.2327    0.0000 C.3     1  UNL1       -0.0108
      4 C           7.7610   -1.3020    0.0000 C.3     1  UNL1       -0.0465
      5 C           6.0010   -1.2673    0.0000 C.3     1  UNL1       -0.0285
      6 C           6.0010    0.7327    0.0000 C.3     1  UNL1       -0.0244
      7 C           7.7610    0.7674    0.0000 C.2     1  UNL1       -0.0727
      8 C           8.6671   -0.7881    0.0000 C.3     1  UNL1       -0.0488
      9 C           6.8671   -1.7673    0.0000 C.3     1  UNL1       -0.0587
     10 C           8.6671    0.2535    0.0000 C.3     1  UNL1       -0.0317
     11 C           5.1350    0.2327    0.0000 C.2     1  UNL1       -0.0679
     12 C           5.1350   -0.7673    0.0000 C.2     1  UNL1       -0.0839
     13 C           4.2690    0.7327    0.0000 C.3     1  UNL1        0.0005
     14 C           7.7494    1.7673    0.0000 C.2     1  UNL1       -0.0992
     15 C           3.4030    0.2327    0.0000 C.3     1  UNL1        0.0504
     16 C           4.2690    1.7327    0.0000 C.3     1  UNL1       -0.0566
     17 H           6.8605    1.0827    0.0000 H       1  UNL1        0.0354
     18 H           7.3564   -1.7718    0.0000 H       1  UNL1        0.0271
     19 H           8.1546   -1.7810    0.0000 H       1  UNL1        0.0271
     20 H           5.6025   -1.7422    0.0000 H       1  UNL1        0.0313
     21 H           6.3996   -1.7422    0.0000 H       1  UNL1        0.0313
     22 H           6.3996    1.2076    0.0000 H       1  UNL1        0.0316
     23 H           5.6025    1.2076    0.0000 H       1  UNL1        0.0316
     24 H           8.8761   -1.3718    0.0000 H       1  UNL1        0.0268
     25 H           9.2779   -0.6820    0.0000 H       1  UNL1        0.0268
     26 H           6.2471   -1.7673    0.0000 H       1  UNL1        0.0235
     27 H           6.8671   -2.3873    0.0000 H       1  UNL1        0.0235
     28 H           7.4871   -1.7673    0.0000 H       1  UNL1        0.0235
     29 H           9.2779    0.1474    0.0000 H       1  UNL1        0.0310
     30 H           8.8761    0.8372    0.0000 H       1  UNL1        0.0310
     31 H           4.5981   -1.0773    0.0000 H       1  UNL1        0.0572
     32 H           4.8059    1.0427    0.0000 H       1  UNL1        0.0365
     33 H           8.2828    2.0835    0.0000 H       1  UNL1        0.0534
     34 H           7.2090    2.0711    0.0000 H       1  UNL1        0.0534
     35 H           3.0044   -0.2422    0.0000 H       1  UNL1        0.0563
     36 H           3.8015   -0.2422    0.0000 H       1  UNL1        0.0563
     37 H           4.8890    1.7327    0.0000 H       1  UNL1        0.0236
     38 H           4.2690    2.3527    0.0000 H       1  UNL1        0.0236
     39 H           3.6490    1.7327    0.0000 H       1  UNL1        0.0236
     40 H           2.0000    0.4227    0.0000 H       1  UNL1        0.2094
@<TRIPOS>BOND
     1     1    15    1
     2     1    40    1
     3     2     3    1
     4     2     4    1
     5     2     5    1
     6     2     9    1
     7     3     6    1
     8     3     7    1
     9     3    17    1
    10     4     8    1
    11     4    18    1
    12     4    19    1
    13     5    12    1
    14     5    20    1
    15     5    21    1
    16     6    11    1
    17     6    22    1
    18     6    23    1
    19     7    10    1
    20     7    14    2
    21     8    10    1
    22     8    24    1
    23     8    25    1
    24     9    26    1
    25     9    27    1
    26     9    28    1
    27    10    29    1
    28    10    30    1
    29    11    12    2
    30    11    13    1
    31    12    31    1
    32    13    15    1
    33    13    16    1
    34    13    32    1
    35    14    33    1
    36    14    34    1
    37    15    35    1
    38    15    36    1
    39    16    37    1
    40    16    38    1
    41    16    39    1
