@<TRIPOS>MOLECULE
IMPHY003291
 118 124 0 0 0
SMALL
GASTEIGER

@<TRIPOS>ATOM
      1 O           7.7331   -1.6941    0.0000 O.3     1  UNL1       -0.3449
      2 O           9.4869    7.5853    0.0000 O.3     1  UNL1       -0.4802
      3 O          10.3702    6.0954    0.0000 O.2     1  UNL1       -0.2504
      4 O           6.0010   -1.6941    0.0000 O.3     1  UNL1       -0.3315
      5 O           7.7331   -3.6941    0.0000 O.3     1  UNL1       -0.3841
      6 O           6.0010   -4.6941    0.0000 O.3     1  UNL1       -0.3400
      7 O           4.2690   -3.6941    0.0000 O.3     1  UNL1       -0.3860
      8 O           4.2690   -0.6941    0.0000 O.3     1  UNL1       -0.4788
      9 O           3.4030   -2.1941    0.0000 O.2     1  UNL1       -0.2480
     10 O           4.2690   -4.6941    0.0000 O.3     1  UNL1       -0.3461
     11 O           6.0010   -6.6941    0.0000 O.3     1  UNL1       -0.3841
     12 O           4.2690   -7.6941    0.0000 O.3     1  UNL1       -0.3864
     13 O           2.5369   -6.6941    0.0000 O.3     1  UNL1       -0.3869
     14 C           8.6342    3.0061    0.0000 C.3     1  UNL1       -0.0194
     15 C           7.7701    2.5027    0.0000 C.3     1  UNL1       -0.0257
     16 C           7.7580    1.4612    0.0000 C.3     1  UNL1       -0.0250
     17 C           8.6303    4.0061    0.0000 C.3     1  UNL1       -0.0051
     18 C           8.6581    0.9369    0.0000 C.3     1  UNL1       -0.0278
     19 C           9.5461    2.5027    0.0000 C.3     1  UNL1       -0.0463
     20 C           8.6706   -0.1480    0.0000 C.3     1  UNL1       -0.0052
     21 C           9.5581    1.4612    0.0000 C.3     1  UNL1       -0.0486
     22 C           7.7624    4.5027    0.0000 C.2     1  UNL1       -0.0629
     23 C           6.9021    2.9994    0.0000 C.3     1  UNL1       -0.0306
     24 C           6.8081    0.9369    0.0000 C.3     1  UNL1       -0.0447
     25 C           7.7423    5.5442    0.0000 C.3     1  UNL1       -0.0031
     26 C           9.5383    4.5164    0.0000 C.3     1  UNL1       -0.0424
     27 C           8.6383    6.0754    0.0000 C.3     1  UNL1        0.0741
     28 C           9.6183    3.1835    0.0000 C.3     1  UNL1       -0.0585
     29 C           7.7331   -0.6941    0.0000 C.3     1  UNL1        0.0672
     30 C           9.5424    5.5580    0.0000 C.3     1  UNL1       -0.0359
     31 C           6.8939    1.9645    0.0000 C.3     1  UNL1       -0.0590
     32 C           6.7956   -0.1480    0.0000 C.3     1  UNL1       -0.0255
     33 C           6.8983    3.9994    0.0000 C.2     1  UNL1       -0.0836
     34 C           9.6158    3.8362    0.0000 C.3     1  UNL1       -0.0553
     35 C           6.7884    6.0611    0.0000 C.3     1  UNL1       -0.0403
     36 C           8.6424    7.1604    0.0000 C.3     1  UNL1       -0.0362
     37 C           6.7674    7.1459    0.0000 C.3     1  UNL1       -0.0343
     38 C           9.6706   -0.1403    0.0000 C.3     1  UNL1       -0.0572
     39 C           9.1773   -1.0102    0.0000 C.3     1  UNL1       -0.0572
     40 C           7.7007    7.6992    0.0000 C.3     1  UNL1       -0.0468
     41 C           9.4985    6.5854    0.0000 C.2     1  UNL1        0.3115
     42 C           6.2542    8.0041    0.0000 C.3     1  UNL1       -0.0598
     43 C           5.7676    7.1305    0.0000 C.3     1  UNL1       -0.0598
     44 C           6.8671   -2.1941    0.0000 C.3     1  UNL1        0.1888
     45 C           6.8671   -3.1941    0.0000 C.3     1  UNL1        0.1345
     46 C           6.0010   -3.6941    0.0000 C.3     1  UNL1        0.1211
     47 C           5.1350   -2.1941    0.0000 C.3     1  UNL1        0.1859
     48 C           5.1350   -3.1941    0.0000 C.3     1  UNL1        0.1205
     49 C           4.2690   -1.6941    0.0000 C.2     1  UNL1        0.3367
     50 C           5.1350   -5.1941    0.0000 C.3     1  UNL1        0.1880
     51 C           5.1350   -6.1941    0.0000 C.3     1  UNL1        0.1341
     52 C           4.2690   -6.6941    0.0000 C.3     1  UNL1        0.1137
     53 C           3.4030   -5.1941    0.0000 C.3     1  UNL1        0.0792
     54 C           3.4030   -6.1941    0.0000 C.3     1  UNL1        0.1069
     55 H           8.5045    2.0749    0.0000 H       1  UNL1        0.0315
     56 H           9.3974    0.5176    0.0000 H       1  UNL1        0.0312
     57 H          10.1581    2.4037    0.0000 H       1  UNL1        0.0271
     58 H           9.7484    3.0888    0.0000 H       1  UNL1        0.0271
     59 H           9.7739    0.8800    0.0000 H       1  UNL1        0.0268
     60 H          10.1677    1.5743    0.0000 H       1  UNL1        0.0268
     61 H           6.2911    3.1047    0.0000 H       1  UNL1        0.0310
     62 H           6.6923    2.4160    0.0000 H       1  UNL1        0.0310
     63 H           6.6058    1.5230    0.0000 H       1  UNL1        0.0271
     64 H           6.1961    0.8379    0.0000 H       1  UNL1        0.0271
     65 H           7.0162    5.1023    0.0000 H       1  UNL1        0.0357
     66 H           9.7451    3.9319    0.0000 H       1  UNL1        0.0274
     67 H          10.1496    4.6202    0.0000 H       1  UNL1        0.0274
     68 H           9.7283    2.5734    0.0000 H       1  UNL1        0.0235
     69 H          10.2284    3.2936    0.0000 H       1  UNL1        0.0235
     70 H           9.5083    3.7937    0.0000 H       1  UNL1        0.0235
     71 H           8.2706   -1.0031    0.0000 H       1  UNL1        0.0602
     72 H          10.1528    5.4496    0.0000 H       1  UNL1        0.0276
     73 H           9.7536    6.1409    0.0000 H       1  UNL1        0.0276
     74 H           7.2060    2.5003    0.0000 H       1  UNL1        0.0235
     75 H           6.3582    2.2766    0.0000 H       1  UNL1        0.0235
     76 H           6.5818    1.4288    0.0000 H       1  UNL1        0.0235
     77 H           6.1860   -0.0349    0.0000 H       1  UNL1        0.0290
     78 H           6.5798   -0.7293    0.0000 H       1  UNL1        0.0290
     79 H           6.3601    4.3073    0.0000 H       1  UNL1        0.0572
     80 H           9.5105    3.2252    0.0000 H       1  UNL1        0.0238
     81 H          10.2268    3.7309    0.0000 H       1  UNL1        0.0238
     82 H           9.7211    4.4472    0.0000 H       1  UNL1        0.0238
     83 H           6.1756    6.1554    0.0000 H       1  UNL1        0.0276
     84 H           6.5906    5.4735    0.0000 H       1  UNL1        0.0276
     85 H           9.2529    7.0519    0.0000 H       1  UNL1        0.0276
     86 H           8.8538    7.7433    0.0000 H       1  UNL1        0.0276
     87 H           9.6754   -0.7603    0.0000 H       1  UNL1        0.0236
     88 H          10.2906   -0.1355    0.0000 H       1  UNL1        0.0236
     89 H           9.6658    0.4797    0.0000 H       1  UNL1        0.0236
     90 H           8.6428   -1.3243    0.0000 H       1  UNL1        0.0236
     91 H           9.4914   -1.5447    0.0000 H       1  UNL1        0.0236
     92 H           9.7118   -0.6960    0.0000 H       1  UNL1        0.0236
     93 H           8.0962    8.1767    0.0000 H       1  UNL1        0.0271
     94 H           7.2980    8.1706    0.0000 H       1  UNL1        0.0271
     95 H           5.7580    7.7504    0.0000 H       1  UNL1        0.0235
     96 H           5.1476    7.1209    0.0000 H       1  UNL1        0.0235
     97 H           5.7771    6.5106    0.0000 H       1  UNL1        0.0235
     98 H           6.7862    8.3224    0.0000 H       1  UNL1        0.0235
     99 H           5.9359    8.5362    0.0000 H       1  UNL1        0.0235
    100 H           5.7220    7.6859    0.0000 H       1  UNL1        0.0235
    101 H           7.4040   -2.5041    0.0000 H       1  UNL1        0.0938
    102 H          10.0202    7.9015    0.0000 H       1  UNL1        0.2951
    103 H           6.8671   -3.8141    0.0000 H       1  UNL1        0.0671
    104 H           5.4641   -4.0041    0.0000 H       1  UNL1        0.0652
    105 H           5.1350   -1.5741    0.0000 H       1  UNL1        0.0741
    106 H           4.5981   -2.8841    0.0000 H       1  UNL1        0.0652
    107 H           7.7331   -4.3141    0.0000 H       1  UNL1        0.2101
    108 H           3.7320   -3.3841    0.0000 H       1  UNL1        0.2100
    109 H           5.1350   -4.5741    0.0000 H       1  UNL1        0.0937
    110 H           5.1350   -6.8141    0.0000 H       1  UNL1        0.0671
    111 H           3.7320   -0.3841    0.0000 H       1  UNL1        0.2951
    112 H           3.7320   -7.0041    0.0000 H       1  UNL1        0.0647
    113 H           3.1909   -4.6115    0.0000 H       1  UNL1        0.0587
    114 H           2.7924   -5.3018    0.0000 H       1  UNL1        0.0587
    115 H           2.8660   -5.8841    0.0000 H       1  UNL1        0.0643
    116 H           6.0010   -7.3141    0.0000 H       1  UNL1        0.2101
    117 H           3.7320   -8.0041    0.0000 H       1  UNL1        0.2100
    118 H           2.0000   -6.3841    0.0000 H       1  UNL1        0.2100
@<TRIPOS>BOND
     1    29     1    1
     2    44     1    1
     3     2    41    1
     4     2   102    1
     5     3    41    2
     6     4    44    1
     7     4    47    1
     8    45     5    1
     9     5   107    1
    10    46     6    1
    11    50     6    1
    12    48     7    1
    13     7   108    1
    14     8    49    1
    15     8   111    1
    16     9    49    2
    17    10    50    1
    18    10    53    1
    19    51    11    1
    20    11   116    1
    21    52    12    1
    22    12   117    1
    23    54    13    1
    24    13   118    1
    25    14    15    1
    26    14    17    1
    27    14    19    1
    28    14    28    1
    29    15    16    1
    30    15    23    1
    31    15    55    1
    32    16    18    1
    33    16    24    1
    34    16    31    1
    35    17    22    1
    36    17    26    1
    37    17    34    1
    38    18    20    1
    39    18    21    1
    40    18    56    1
    41    19    21    1
    42    19    57    1
    43    19    58    1
    44    20    29    1
    45    20    38    1
    46    20    39    1
    47    21    59    1
    48    21    60    1
    49    22    25    1
    50    22    33    2
    51    23    33    1
    52    23    61    1
    53    23    62    1
    54    24    32    1
    55    24    63    1
    56    24    64    1
    57    25    27    1
    58    25    35    1
    59    25    65    1
    60    26    30    1
    61    26    66    1
    62    26    67    1
    63    27    30    1
    64    27    36    1
    65    27    41    1
    66    28    68    1
    67    28    69    1
    68    28    70    1
    69    29    32    1
    70    29    71    1
    71    30    72    1
    72    30    73    1
    73    31    74    1
    74    31    75    1
    75    31    76    1
    76    32    77    1
    77    32    78    1
    78    33    79    1
    79    34    80    1
    80    34    81    1
    81    34    82    1
    82    35    37    1
    83    35    83    1
    84    35    84    1
    85    36    40    1
    86    36    85    1
    87    36    86    1
    88    37    40    1
    89    37    42    1
    90    37    43    1
    91    38    87    1
    92    38    88    1
    93    38    89    1
    94    39    90    1
    95    39    91    1
    96    39    92    1
    97    40    93    1
    98    40    94    1
    99    42    98    1
   100    42    99    1
   101    42   100    1
   102    43    95    1
   103    43    96    1
   104    43    97    1
   105    44    45    1
   106    44   101    1
   107    45    46    1
   108    45   103    1
   109    46    48    1
   110    46   104    1
   111    47    48    1
   112    47    49    1
   113    47   105    1
   114    48   106    1
   115    50    51    1
   116    50   109    1
   117    51    52    1
   118    51   110    1
   119    52    54    1
   120    52   112    1
   121    53    54    1
   122    53   113    1
   123    53   114    1
   124    54   115    1
