@<TRIPOS>MOLECULE
IMPHY003760
 26 25 0 0 0
SMALL
GASTEIGER

@<TRIPOS>ATOM
      1 O           9.7942    0.2500    0.0000 O.2     1  UNL1       -0.2963
      2 C           4.5981    0.2500    0.0000 C.3     1  UNL1       -0.0528
      3 C           3.7320   -0.2500    0.0000 C.3     1  UNL1       -0.0533
      4 C           5.4641   -0.2500    0.0000 C.3     1  UNL1       -0.0496
      5 C           2.8660    0.2500    0.0000 C.3     1  UNL1       -0.0559
      6 C           6.3301    0.2500    0.0000 C.3     1  UNL1       -0.0344
      7 C           2.0000   -0.2500    0.0000 C.3     1  UNL1       -0.0653
      8 C           7.1962   -0.2500    0.0000 C.2     1  UNL1       -0.0810
      9 C           8.0622    0.2500    0.0000 C.2     1  UNL1       -0.0264
     10 C           8.9282   -0.2500    0.0000 C.2     1  UNL1        0.1428
     11 H           4.9966    0.7249    0.0000 H       1  UNL1        0.0265
     12 H           4.1996    0.7249    0.0000 H       1  UNL1        0.0265
     13 H           3.3335   -0.7249    0.0000 H       1  UNL1        0.0265
     14 H           4.1306   -0.7249    0.0000 H       1  UNL1        0.0265
     15 H           5.0656   -0.7249    0.0000 H       1  UNL1        0.0268
     16 H           5.8626   -0.7249    0.0000 H       1  UNL1        0.0268
     17 H           3.2646    0.7249    0.0000 H       1  UNL1        0.0263
     18 H           2.4675    0.7249    0.0000 H       1  UNL1        0.0263
     19 H           6.7287    0.7249    0.0000 H       1  UNL1        0.0307
     20 H           5.9316    0.7249    0.0000 H       1  UNL1        0.0307
     21 H           1.6900    0.2869    0.0000 H       1  UNL1        0.0230
     22 H           1.4631   -0.5600    0.0000 H       1  UNL1        0.0230
     23 H           2.3100   -0.7869    0.0000 H       1  UNL1        0.0230
     24 H           7.1962   -0.8700    0.0000 H       1  UNL1        0.0573
     25 H           8.0622    0.8700    0.0000 H       1  UNL1        0.0646
     26 H           8.9282   -0.8700    0.0000 H       1  UNL1        0.1075
@<TRIPOS>BOND
     1     1    10    2
     2     2     3    1
     3     2     4    1
     4     2    11    1
     5     2    12    1
     6     3     5    1
     7     3    13    1
     8     3    14    1
     9     4     6    1
    10     4    15    1
    11     4    16    1
    12     5     7    1
    13     5    17    1
    14     5    18    1
    15     6     8    1
    16     6    19    1
    17     6    20    1
    18     7    21    1
    19     7    22    1
    20     7    23    1
    21     8     9    2
    22     8    24    1
    23     9    10    1
    24     9    25    1
    25    10    26    1
