@<TRIPOS>MOLECULE
IMPHY002805
 42 45 0 0 0
SMALL
GASTEIGER

@<TRIPOS>ATOM
      1 O           7.6904    2.0665    0.0000 O.2     1  UNL1       -0.4237
      2 O           5.9065    2.4409    0.0000 O.2     1  UNL1       -0.4239
      3 O           8.4155   -1.3598    0.0000 O.3     1  UNL1       -0.5055
      4 O           6.7634   -0.7866    0.0000 O.2     1  UNL1       -0.2861
      5 O          11.0552    0.9986    0.0000 O.3     1  UNL1       -0.5062
      6 O           2.4170    1.5366    0.0000 O.3     1  UNL1       -0.5066
      7 C           6.4033    0.9076    0.0000 C.ar    1  UNL1        0.1135
      8 C           8.0505    0.3723    0.0000 C.ar    1  UNL1        0.1066
      9 C           5.4092    0.9102    0.0000 C.ar    1  UNL1        0.0352
     10 C           8.3596    1.3234    0.0000 C.ar    1  UNL1        0.1497
     11 C           7.0724    0.1644    0.0000 C.ar    1  UNL1        0.2076
     12 C           9.7560   -0.2037    0.0000 C.ar    1  UNL1        0.0400
     13 C           6.7123    1.8586    0.0000 C.ar    1  UNL1        0.3042
     14 C           8.7355   -0.4124    0.0000 C.ar    1  UNL1        0.1381
     15 C           5.1028    1.8558    0.0000 C.ar    1  UNL1        0.1433
     16 C          10.4223   -0.9494    0.0000 C.3     1  UNL1       -0.0023
     17 C          10.0779    0.7870    0.0000 C.ar    1  UNL1        0.1273
     18 C           9.3750    1.5556    0.0000 C.ar    1  UNL1        0.0235
     19 C           4.7276    0.1307    0.0000 C.ar    1  UNL1       -0.0467
     20 C           4.0936    2.0876    0.0000 C.ar    1  UNL1        0.0229
     21 C          11.4012   -0.7453    0.0000 C.2     1  UNL1       -0.0807
     22 C           3.7133    0.3390    0.0000 C.ar    1  UNL1       -0.0194
     23 C           3.3942    1.3241    0.0000 C.ar    1  UNL1        0.1204
     24 C          12.0675   -1.4910    0.0000 C.2     1  UNL1       -0.0793
     25 C          13.0464   -1.2868    0.0000 C.3     1  UNL1       -0.0440
     26 C          11.7548   -2.4409    0.0000 C.3     1  UNL1       -0.0440
     27 H           9.8952   -1.2759    0.0000 H       1  UNL1        0.0358
     28 H          10.6523   -1.5252    0.0000 H       1  UNL1        0.0358
     29 H           9.5597    2.1475    0.0000 H       1  UNL1        0.0691
     30 H           4.9255   -0.4569    0.0000 H       1  UNL1        0.0626
     31 H           3.9094    2.6796    0.0000 H       1  UNL1        0.0691
     32 H          11.5951   -0.1564    0.0000 H       1  UNL1        0.0575
     33 H           3.2998   -0.1230    0.0000 H       1  UNL1        0.0654
     34 H           8.8250   -1.8253    0.0000 H       1  UNL1        0.2922
     35 H          11.2446    1.5890    0.0000 H       1  UNL1        0.2921
     36 H          13.1730   -1.8938    0.0000 H       1  UNL1        0.0274
     37 H          13.6534   -1.1603    0.0000 H       1  UNL1        0.0274
     38 H          12.9199   -0.6799    0.0000 H       1  UNL1        0.0274
     39 H          11.1659   -2.2470    0.0000 H       1  UNL1        0.0274
     40 H          11.5609   -3.0298    0.0000 H       1  UNL1        0.0274
     41 H          12.3437   -2.6347    0.0000 H       1  UNL1        0.0274
     42 H           2.0000    1.0778    0.0000 H       1  UNL1        0.2921
@<TRIPOS>BOND
     1     1    10   ar
     2     1    13   ar
     3     2    13   ar
     4     2    15   ar
     5     3    14    1
     6     3    34    1
     7     4    11    2
     8     5    17    1
     9     5    35    1
    10     6    23    1
    11     6    42    1
    12     7     9   ar
    13     7    11   ar
    14     7    13   ar
    15     8    10   ar
    16     8    11   ar
    17     8    14   ar
    18     9    15   ar
    19     9    19   ar
    20    10    18   ar
    21    12    14   ar
    22    12    16    1
    23    12    17   ar
    24    15    20   ar
    25    16    21    1
    26    16    27    1
    27    16    28    1
    28    17    18   ar
    29    18    29    1
    30    19    22   ar
    31    19    30    1
    32    20    23   ar
    33    20    31    1
    34    21    24    2
    35    21    32    1
    36    22    23   ar
    37    22    33    1
    38    24    25    1
    39    24    26    1
    40    25    36    1
    41    25    37    1
    42    25    38    1
    43    26    39    1
    44    26    40    1
    45    26    41    1
