@<TRIPOS>MOLECULE
IMPHY000616
 27 26 0 0 0
SMALL
GASTEIGER

@<TRIPOS>ATOM
      1 O           6.8671    1.8100    0.0000 O.3     1  UNL1       -0.4795
      2 OXT         6.0010    3.3100    0.0000 O.2     1  UNL1       -0.2493
      3 N           4.2690    2.3100    0.0000 N.3     1  UNL1       -0.3184
      4 N           2.5369   -2.6900    0.0000 N.pl3   1  UNL1       -0.2508
      5 N           4.2690   -2.6900    0.0000 N.2     1  UNL1       -0.1041
      6 C           4.2690    0.3100    0.0000 C.3     1  UNL1       -0.0506
      7 C           5.1350    0.8100    0.0000 C.3     1  UNL1       -0.0274
      8 C           4.2690   -0.6900    0.0000 C.3     1  UNL1       -0.0421
      9 CA          5.1350    1.8100    0.0000 C.3     1  UNL1        0.1032
     10 C           3.4030   -1.1900    0.0000 C.3     1  UNL1        0.0500
     11 C           6.0010    2.3100    0.0000 C.2     1  UNL1        0.3217
     12 C           3.4030   -2.1900    0.0000 C.2     1  UNL1        0.2761
     13 H           4.0569    0.8926    0.0000 H       1  UNL1        0.0266
     14 H           3.6584    0.2023    0.0000 H       1  UNL1        0.0266
     15 H           5.3471    0.2274    0.0000 H       1  UNL1        0.0286
     16 H           5.7456    0.9177    0.0000 H       1  UNL1        0.0286
     17 H           4.4810   -1.2726    0.0000 H       1  UNL1        0.0271
     18 H           4.8796   -0.5823    0.0000 H       1  UNL1        0.0271
     19 HA          5.1350    2.4300    0.0000 H       1  UNL1        0.0574
     20 H           3.1909   -0.6074    0.0000 H       1  UNL1        0.0387
     21 H           2.7924   -1.2977    0.0000 H       1  UNL1        0.0387
     22 H1          3.7320    2.0000    0.0000 H       1  UNL1        0.1190
     23 H2          4.2690    2.9300    0.0000 H       1  UNL1        0.1190
     24 H           2.5369   -3.3100    0.0000 H       1  UNL1        0.2881
     25 H           2.0000   -2.3800    0.0000 H       1  UNL1        0.2881
     26 H           7.4040    2.1200    0.0000 H       1  UNL1        0.2951
     27 H           4.2690   -3.3100    0.0000 H       1  UNL1        0.3629
@<TRIPOS>BOND
     1     1    11    1
     2     1    26    1
     3     2    11    2
     4     9     3    1
     5     3    22    1
     6     3    23    1
     7     4    12    1
     8     4    24    1
     9     4    25    1
    10     5    12    2
    11     5    27    1
    12     6     7    1
    13     6     8    1
    14     6    13    1
    15     6    14    1
    16     7     9    1
    17     7    15    1
    18     7    16    1
    19     8    10    1
    20     8    17    1
    21     8    18    1
    22     9    11    1
    23     9    19    1
    24    10    12    1
    25    10    20    1
    26    10    21    1
