@<TRIPOS>MOLECULE
IMPHY006270
 71 73 0 0 0
SMALL
GASTEIGER

@<TRIPOS>ATOM
      1 O           5.1350   -2.2608    0.0000 O.3     1  UNL1       -0.3404
      2 O           6.8671   -2.2608    0.0000 O.3     1  UNL1       -0.3061
      3 O           5.1350   -5.2608    0.0000 O.3     1  UNL1       -0.3864
      4 O           3.4030   -4.2608    0.0000 O.3     1  UNL1       -0.3865
      5 O           6.8671   -4.2608    0.0000 O.3     1  UNL1       -0.3841
      6 O           6.0010   -0.7608    0.0000 O.2     1  UNL1       -0.4666
      7 O           2.5369   -2.7608    0.0000 O.3     1  UNL1       -0.3924
      8 O          10.2267    1.3316    0.0000 O.3     1  UNL1       -0.4643
      9 O           6.0010    2.2392    0.0000 O.3     1  UNL1       -0.4646
     10 O          10.3312   -1.2608    0.0000 O.3     1  UNL1       -0.3910
     11 O           8.8999    2.4450    0.0000 O.2     1  UNL1       -0.2508
     12 O           7.2091    2.6789    0.0000 O.2     1  UNL1       -0.2452
     13 O          15.1095    3.1088    0.0000 O.3     1  UNL1       -0.5033
     14 O          14.4255    4.9882    0.0000 O.3     1  UNL1       -0.5033
     15 C           5.1350   -4.2608    0.0000 C.3     1  UNL1        0.1141
     16 C           4.2690   -3.7608    0.0000 C.3     1  UNL1        0.1119
     17 C           6.0010   -3.7608    0.0000 C.3     1  UNL1        0.1343
     18 C           4.2690   -2.7608    0.0000 C.3     1  UNL1        0.1130
     19 C           6.0010   -2.7608    0.0000 C.3     1  UNL1        0.1921
     20 C           3.4030   -2.2608    0.0000 C.3     1  UNL1        0.0730
     21 C           6.8671   -1.2608    0.0000 C.3     1  UNL1        0.2266
     22 C           7.7331    0.2392    0.0000 C.3     1  UNL1        0.0308
     23 C           7.7331   -0.7608    0.0000 C.2     1  UNL1        0.0043
     24 C           6.8671    0.7392    0.0000 C.2     1  UNL1        0.0785
     25 C           8.5991    0.7392    0.0000 C.3     1  UNL1        0.0559
     26 C           8.5991   -1.2608    0.0000 C.2     1  UNL1       -0.0533
     27 C           6.0010    0.2392    0.0000 C.2     1  UNL1        0.0988
     28 C           9.2419    1.5052    0.0000 C.2     1  UNL1        0.3080
     29 C           6.8671    1.7392    0.0000 C.2     1  UNL1        0.3384
     30 C           9.4651   -0.7608    0.0000 C.3     1  UNL1        0.0628
     31 C          10.8695    2.0976    0.0000 C.3     1  UNL1        0.0964
     32 C          11.8543    1.9240    0.0000 C.3     1  UNL1        0.0069
     33 C           6.0010    3.2392    0.0000 C.3     1  UNL1        0.0820
     34 C          12.4971    2.6900    0.0000 C.ar    1  UNL1       -0.0405
     35 C          13.4819    2.5164    0.0000 C.ar    1  UNL1       -0.0132
     36 C          12.1551    3.6297    0.0000 C.ar    1  UNL1       -0.0548
     37 C          14.1247    3.2824    0.0000 C.ar    1  UNL1        0.1585
     38 C          12.7979    4.3958    0.0000 C.ar    1  UNL1       -0.0163
     39 C          13.7827    4.2221    0.0000 C.ar    1  UNL1        0.1582
     40 H           5.6720   -4.5708    0.0000 H       1  UNL1        0.0648
     41 H           4.2690   -4.3808    0.0000 H       1  UNL1        0.0647
     42 H           6.5380   -3.4508    0.0000 H       1  UNL1        0.0671
     43 H           4.2690   -2.1408    0.0000 H       1  UNL1        0.0647
     44 H           6.0010   -2.1408    0.0000 H       1  UNL1        0.0939
     45 H           3.8015   -1.7858    0.0000 H       1  UNL1        0.0584
     46 H           3.0044   -1.7858    0.0000 H       1  UNL1        0.0584
     47 H           7.4040   -1.5708    0.0000 H       1  UNL1        0.1109
     48 H           8.2700   -0.0708    0.0000 H       1  UNL1        0.0404
     49 H           4.5981   -5.5708    0.0000 H       1  UNL1        0.2100
     50 H           3.4030   -4.8808    0.0000 H       1  UNL1        0.2100
     51 H           6.8671   -4.8808    0.0000 H       1  UNL1        0.2101
     52 H           8.6711    0.1234    0.0000 H       1  UNL1        0.0387
     53 H           8.2006    1.2142    0.0000 H       1  UNL1        0.0387
     54 H           8.5991   -1.8808    0.0000 H       1  UNL1        0.0596
     55 H           5.4641    0.5492    0.0000 H       1  UNL1        0.1030
     56 H           2.0000   -2.4508    0.0000 H       1  UNL1        0.2095
     57 H           9.8637   -0.2858    0.0000 H       1  UNL1        0.0601
     58 H           9.0666   -0.2858    0.0000 H       1  UNL1        0.0601
     59 H          11.0815    2.6803    0.0000 H       1  UNL1        0.0701
     60 H          10.3326    2.4076    0.0000 H       1  UNL1        0.0701
     61 H          10.8681   -0.9508    0.0000 H       1  UNL1        0.2098
     62 H          11.6423    1.3414    0.0000 H       1  UNL1        0.0346
     63 H          12.3912    1.6140    0.0000 H       1  UNL1        0.0346
     64 H           6.6210    3.2392    0.0000 H       1  UNL1        0.0661
     65 H           6.0010    3.8592    0.0000 H       1  UNL1        0.0661
     66 H           5.3810    3.2392    0.0000 H       1  UNL1        0.0661
     67 H          13.6940    1.9338    0.0000 H       1  UNL1        0.0658
     68 H          11.5445    3.7374    0.0000 H       1  UNL1        0.0621
     69 H          12.5858    4.9784    0.0000 H       1  UNL1        0.0655
     70 H          15.3215    2.5262    0.0000 H       1  UNL1        0.2923
     71 H          14.2134    5.5708    0.0000 H       1  UNL1        0.2923
@<TRIPOS>BOND
     1     1    18    1
     2     1    19    1
     3    19     2    1
     4    21     2    1
     5    15     3    1
     6     3    49    1
     7    16     4    1
     8     4    50    1
     9    17     5    1
    10     5    51    1
    11     6    21    1
    12     6    27    1
    13     7    20    1
    14     7    56    1
    15     8    28    1
    16     8    31    1
    17     9    29    1
    18     9    33    1
    19    10    30    1
    20    10    61    1
    21    11    28    2
    22    12    29    2
    23    13    37    1
    24    13    70    1
    25    14    39    1
    26    14    71    1
    27    15    16    1
    28    15    17    1
    29    15    40    1
    30    16    18    1
    31    16    41    1
    32    17    19    1
    33    17    42    1
    34    18    20    1
    35    18    43    1
    36    19    44    1
    37    20    45    1
    38    20    46    1
    39    21    23    1
    40    21    47    1
    41    22    23    1
    42    22    24    1
    43    22    25    1
    44    22    48    1
    45    23    26    2
    46    24    27    2
    47    24    29    1
    48    25    28    1
    49    25    52    1
    50    25    53    1
    51    26    30    1
    52    26    54    1
    53    27    55    1
    54    30    57    1
    55    30    58    1
    56    31    32    1
    57    31    59    1
    58    31    60    1
    59    32    34    1
    60    32    62    1
    61    32    63    1
    62    33    64    1
    63    33    65    1
    64    33    66    1
    65    34    35   ar
    66    34    36   ar
    67    35    37   ar
    68    35    67    1
    69    36    38   ar
    70    36    68    1
    71    37    39   ar
    72    38    39   ar
    73    38    69    1
