@<TRIPOS>MOLECULE
IMPHY008085
 41 41 0 0 0
SMALL
GASTEIGER

@<TRIPOS>ATOM
      1 O           9.0991    0.6340    0.0000 O.3     1  UNL1       -0.3673
      2 O           2.5369   -0.0000    0.0000 O.3     1  UNL1       -0.3757
      3 C           9.5991    1.5000    0.0000 C.3     1  UNL1        0.0862
      4 C           8.5991    1.5000    0.0000 C.3     1  UNL1        0.0960
      5 C          10.4651    2.0000    0.0000 C.3     1  UNL1       -0.0241
      6 C          11.3312    1.5000    0.0000 C.3     1  UNL1       -0.0506
      7 C           7.7331    2.0000    0.0000 C.3     1  UNL1        0.0388
      8 C          12.1972    2.0000    0.0000 C.3     1  UNL1       -0.0527
      9 C          13.0632    1.5000    0.0000 C.3     1  UNL1       -0.0496
     10 C           6.8671    1.5000    0.0000 C.1     1  UNL1       -0.0858
     11 C          13.9292    2.0000    0.0000 C.3     1  UNL1       -0.0350
     12 C          14.7953    1.5000    0.0000 C.2     1  UNL1       -0.0911
     13 C           6.0010    1.0000    0.0000 C.1     1  UNL1       -0.0147
     14 C          15.6613    2.0000    0.0000 C.2     1  UNL1       -0.1026
     15 C           5.1350    0.5000    0.0000 C.1     1  UNL1       -0.0119
     16 C           4.2690   -0.0000    0.0000 C.1     1  UNL1       -0.0529
     17 C           3.4030   -0.5000    0.0000 C.3     1  UNL1        0.1348
     18 C           3.4030   -1.5000    0.0000 C.2     1  UNL1       -0.0510
     19 C           2.5369   -2.0000    0.0000 C.2     1  UNL1       -0.0993
     20 H          10.2002    0.8990    0.0000 H       1  UNL1        0.0622
     21 H           7.9981    0.8990    0.0000 H       1  UNL1        0.0631
     22 H          10.8637    2.4750    0.0000 H       1  UNL1        0.0291
     23 H          10.0666    2.4750    0.0000 H       1  UNL1        0.0291
     24 H          10.9326    1.0250    0.0000 H       1  UNL1        0.0266
     25 H          11.7297    1.0250    0.0000 H       1  UNL1        0.0266
     26 H           8.1316    2.4750    0.0000 H       1  UNL1        0.0424
     27 H           7.3346    2.4750    0.0000 H       1  UNL1        0.0424
     28 H          12.5957    2.4750    0.0000 H       1  UNL1        0.0265
     29 H          11.7987    2.4750    0.0000 H       1  UNL1        0.0265
     30 H          12.6647    1.0250    0.0000 H       1  UNL1        0.0268
     31 H          13.4617    1.0250    0.0000 H       1  UNL1        0.0268
     32 H          14.3278    2.4750    0.0000 H       1  UNL1        0.0307
     33 H          13.5307    2.4750    0.0000 H       1  UNL1        0.0307
     34 H          14.7953    0.8800    0.0000 H       1  UNL1        0.0566
     35 H          16.1982    1.6900    0.0000 H       1  UNL1        0.0532
     36 H          15.6613    2.6200    0.0000 H       1  UNL1        0.0532
     37 H           3.4030    0.3500    0.0000 H       1  UNL1        0.0777
     38 H           3.9399   -1.8100    0.0000 H       1  UNL1        0.0601
     39 H           2.0000   -0.3100    0.0000 H       1  UNL1        0.2114
     40 H           2.0000   -1.6900    0.0000 H       1  UNL1        0.0533
     41 H           2.5369   -2.6200    0.0000 H       1  UNL1        0.0533
@<TRIPOS>BOND
     1     1     3    1
     2     1     4    1
     3     2    17    1
     4     2    39    1
     5     3     4    1
     6     3     5    1
     7     3    20    1
     8     4     7    1
     9     4    21    1
    10     5     6    1
    11     5    22    1
    12     5    23    1
    13     6     8    1
    14     6    24    1
    15     6    25    1
    16     7    10    1
    17     7    26    1
    18     7    27    1
    19     8     9    1
    20     8    28    1
    21     8    29    1
    22     9    11    1
    23     9    30    1
    24     9    31    1
    25    10    13    3
    26    11    12    1
    27    11    32    1
    28    11    33    1
    29    12    14    2
    30    12    34    1
    31    13    15    1
    32    14    35    1
    33    14    36    1
    34    15    16    3
    35    16    17    1
    36    17    18    1
    37    17    37    1
    38    18    19    2
    39    18    38    1
    40    19    40    1
    41    19    41    1
