@<TRIPOS>MOLECULE
IMPHY005256
 65 68 0 0 0
SMALL
GASTEIGER

@<TRIPOS>ATOM
      1 O           8.1223   -2.0159    0.0000 O.3     1  UNL1       -0.4608
      2 O           5.5103    1.5125    0.0000 O.3     1  UNL1       -0.4586
      3 O           7.2762    2.5503    0.0000 O.3     1  UNL1       -0.3758
      4 O           4.6497    1.0156    0.0000 O.2     1  UNL1       -0.2882
      5 O           2.8680    0.0052    0.0000 O.2     1  UNL1       -0.4919
      6 O           9.8438   -2.0487    0.0000 O.2     1  UNL1       -0.2508
      7 O           6.3589    3.0224    0.0000 O.2     1  UNL1       -0.2512
      8 C           7.2641   -0.5190    0.0000 C.3     1  UNL1        0.0158
      9 C           6.3981   -0.0190    0.0000 C.3     1  UNL1        0.0204
     10 C           5.5320   -0.5190    0.0000 C.3     1  UNL1        0.0441
     11 C           8.1741   -0.0122    0.0000 C.3     1  UNL1       -0.0168
     12 C           7.2641   -1.5190    0.0000 C.3     1  UNL1        0.1094
     13 C           5.5320   -1.5190    0.0000 C.3     1  UNL1       -0.0186
     14 C           6.3820    1.0225    0.0000 C.3     1  UNL1        0.1336
     15 C           8.1821    1.0294    0.0000 C.3     1  UNL1       -0.0101
     16 C           6.3981   -2.0190    0.0000 C.3     1  UNL1       -0.0109
     17 C           7.2800    1.5503    0.0000 C.3     1  UNL1        0.0983
     18 C           7.2641    0.4810    0.0000 C.3     1  UNL1       -0.0555
     19 C           9.0134   -0.5404    0.0000 C.3     1  UNL1        0.0487
     20 C           4.6381   -2.0537    0.0000 C.3     1  UNL1       -0.0181
     21 C           5.5320    0.4810    0.0000 C.3     1  UNL1       -0.0517
     22 C           4.6381    0.0157    0.0000 C.2     1  UNL1        0.2035
     23 C           9.0501    1.5261    0.0000 C.3     1  UNL1       -0.0597
     24 C           8.9878   -1.5318    0.0000 C.2     1  UNL1        0.3076
     25 C           3.7320   -1.5398    0.0000 C.2     1  UNL1       -0.0356
     26 C           3.7320   -0.4982    0.0000 C.2     1  UNL1        0.1592
     27 C           4.6497   -3.0536    0.0000 C.3     1  UNL1       -0.0585
     28 C           5.4987    2.5124    0.0000 C.2     1  UNL1        0.3043
     29 C           8.1403    3.0536    0.0000 C.3     1  UNL1        0.0370
     30 C           4.6270    3.0024    0.0000 C.3     1  UNL1        0.0332
     31 C           2.0000   -0.4915    0.0000 C.3     1  UNL1        0.0789
     32 H           5.6587    0.4003    0.0000 H       1  UNL1        0.0353
     33 H           8.9198    0.3959    0.0000 H       1  UNL1        0.0316
     34 H           7.2636   -2.3690    0.0000 H       1  UNL1        0.0739
     35 H           5.5386   -2.3690    0.0000 H       1  UNL1        0.0317
     36 H           5.8493    0.7053    0.0000 H       1  UNL1        0.0763
     37 H           8.7173    0.7164    0.0000 H       1  UNL1        0.0327
     38 H           5.9995   -2.4939    0.0000 H       1  UNL1        0.0304
     39 H           6.7966   -2.4939    0.0000 H       1  UNL1        0.0304
     40 H           6.7413    1.8572    0.0000 H       1  UNL1        0.0636
     41 H           7.8841    0.4810    0.0000 H       1  UNL1        0.0236
     42 H           7.2641    1.1010    0.0000 H       1  UNL1        0.0236
     43 H           6.6441    0.4810    0.0000 H       1  UNL1        0.0236
     44 H           9.6205   -0.6663    0.0000 H       1  UNL1        0.0380
     45 H           9.2452    0.0347    0.0000 H       1  UNL1        0.0380
     46 H           4.1042   -2.3688    0.0000 H       1  UNL1        0.0344
     47 H           6.1520    0.4810    0.0000 H       1  UNL1        0.0239
     48 H           5.5320    1.1010    0.0000 H       1  UNL1        0.0239
     49 H           4.9120    0.4810    0.0000 H       1  UNL1        0.0239
     50 H           9.3580    0.9880    0.0000 H       1  UNL1        0.0233
     51 H           9.5882    1.8340    0.0000 H       1  UNL1        0.0233
     52 H           8.7422    2.0642    0.0000 H       1  UNL1        0.0233
     53 H           3.1963   -1.8519    0.0000 H       1  UNL1        0.0612
     54 H           4.0297   -3.0608    0.0000 H       1  UNL1        0.0235
     55 H           4.6568   -3.6736    0.0000 H       1  UNL1        0.0235
     56 H           5.2696   -3.0464    0.0000 H       1  UNL1        0.0235
     57 H           8.4523    2.5178    0.0000 H       1  UNL1        0.0524
     58 H           8.6760    3.3657    0.0000 H       1  UNL1        0.0524
     59 H           7.8282    3.5893    0.0000 H       1  UNL1        0.0524
     60 H           4.9307    3.5428    0.0000 H       1  UNL1        0.0342
     61 H           4.0865    3.3061    0.0000 H       1  UNL1        0.0342
     62 H           4.3232    2.4619    0.0000 H       1  UNL1        0.0342
     63 H           1.6921    0.0466    0.0000 H       1  UNL1        0.0660
     64 H           1.4619   -0.7994    0.0000 H       1  UNL1        0.0660
     65 H           2.3079   -1.0296    0.0000 H       1  UNL1        0.0660
@<TRIPOS>BOND
     1     1    12    1
     2     1    24    1
     3    14     2    1
     4     2    28    1
     5    17     3    1
     6     3    29    1
     7     4    22    2
     8     5    26    1
     9     5    31    1
    10     6    24    2
    11     7    28    2
    12     8     9    1
    13     8    11    1
    14     8    12    1
    15     8    18    1
    16     9    10    1
    17     9    14    1
    18     9    32    1
    19    10    13    1
    20    10    21    1
    21    10    22    1
    22    11    15    1
    23    11    19    1
    24    11    33    1
    25    12    16    1
    26    12    34    1
    27    13    16    1
    28    13    20    1
    29    13    35    1
    30    14    17    1
    31    14    36    1
    32    15    17    1
    33    15    23    1
    34    15    37    1
    35    16    38    1
    36    16    39    1
    37    17    40    1
    38    18    41    1
    39    18    42    1
    40    18    43    1
    41    19    24    1
    42    19    44    1
    43    19    45    1
    44    20    25    1
    45    20    27    1
    46    20    46    1
    47    21    47    1
    48    21    48    1
    49    21    49    1
    50    22    26    1
    51    23    50    1
    52    23    51    1
    53    23    52    1
    54    25    26    2
    55    25    53    1
    56    27    54    1
    57    27    55    1
    58    27    56    1
    59    28    30    1
    60    29    57    1
    61    29    58    1
    62    29    59    1
    63    30    60    1
    64    30    61    1
    65    30    62    1
    66    31    63    1
    67    31    64    1
    68    31    65    1
