@<TRIPOS>MOLECULE
IMPHY011946
 42 43 0 0 0
SMALL
GASTEIGER

@<TRIPOS>ATOM
      1 O           7.1569    1.5932    0.0000 O.3     1  UNL1       -0.3888
      2 C           4.0000   -0.0824    0.0000 C.3     1  UNL1       -0.0056
      3 C           4.5878    0.7266    0.0000 C.3     1  UNL1       -0.0380
      4 C           5.5388    0.4176    0.0000 C.3     1  UNL1       -0.0118
      5 C           4.5878   -0.8914    0.0000 C.3     1  UNL1       -0.0431
      6 C           3.5000   -0.9484    0.0000 C.3     1  UNL1       -0.0343
      7 C           5.5388   -0.5824    0.0000 C.3     1  UNL1       -0.0468
      8 C           3.5000    0.7836    0.0000 C.2     1  UNL1       -0.0701
      9 C           6.3479    1.0054    0.0000 C.3     1  UNL1        0.0634
     10 C           2.5000   -0.9484    0.0000 C.3     1  UNL1       -0.0462
     11 C           2.0000   -0.0824    0.0000 C.3     1  UNL1       -0.0342
     12 C           4.0000   -1.8144    0.0000 C.3     1  UNL1       -0.0616
     13 C           2.5000    0.7836    0.0000 C.2     1  UNL1       -0.0845
     14 C           4.0000    1.6497    0.0000 C.3     1  UNL1       -0.0433
     15 C           6.9356    0.1964    0.0000 C.3     1  UNL1       -0.0361
     16 C           5.7601    1.8144    0.0000 C.3     1  UNL1       -0.0361
     17 H           4.8400    1.2930    0.0000 H       1  UNL1        0.0277
     18 H           4.0508    1.0366    0.0000 H       1  UNL1        0.0277
     19 H           6.2962    0.0317    0.0000 H       1  UNL1        0.0329
     20 H           4.0508   -1.2014    0.0000 H       1  UNL1        0.0274
     21 H           4.8400   -1.4578    0.0000 H       1  UNL1        0.0274
     22 H           4.1200   -0.9484    0.0000 H       1  UNL1        0.0307
     23 H           5.6678   -1.1888    0.0000 H       1  UNL1        0.0269
     24 H           6.1554   -0.5176    0.0000 H       1  UNL1        0.0269
     25 H           1.9174   -1.1604    0.0000 H       1  UNL1        0.0271
     26 H           2.6077   -1.5590    0.0000 H       1  UNL1        0.0271
     27 H           1.5250    0.3162    0.0000 H       1  UNL1        0.0307
     28 H           1.5250   -0.4809    0.0000 H       1  UNL1        0.0307
     29 H           3.4631   -2.1244    0.0000 H       1  UNL1        0.0233
     30 H           4.3100   -2.3514    0.0000 H       1  UNL1        0.0233
     31 H           4.5369   -1.5044    0.0000 H       1  UNL1        0.0233
     32 H           2.1900    1.3206    0.0000 H       1  UNL1        0.0572
     33 H           4.5369    1.3397    0.0000 H       1  UNL1        0.0275
     34 H           4.3100    2.1866    0.0000 H       1  UNL1        0.0275
     35 H           3.4631    1.9597    0.0000 H       1  UNL1        0.0275
     36 H           6.4340   -0.1680    0.0000 H       1  UNL1        0.0257
     37 H           7.3001   -0.3052    0.0000 H       1  UNL1        0.0257
     38 H           7.4372    0.5608    0.0000 H       1  UNL1        0.0257
     39 H           6.2617    2.1788    0.0000 H       1  UNL1        0.0257
     40 H           5.3956    2.3160    0.0000 H       1  UNL1        0.0257
     41 H           5.2585    1.4500    0.0000 H       1  UNL1        0.0257
     42 H           7.7233    1.3410    0.0000 H       1  UNL1        0.2101
@<TRIPOS>BOND
     1     1     9    1
     2     1    42    1
     3     2     3    1
     4     2     5    1
     5     2     6    1
     6     2     8    1
     7     3     4    1
     8     3    17    1
     9     3    18    1
    10     4     7    1
    11     4     9    1
    12     4    19    1
    13     5     7    1
    14     5    20    1
    15     5    21    1
    16     6    10    1
    17     6    12    1
    18     6    22    1
    19     7    23    1
    20     7    24    1
    21     8    13    2
    22     8    14    1
    23     9    15    1
    24     9    16    1
    25    10    11    1
    26    10    25    1
    27    10    26    1
    28    11    13    1
    29    11    27    1
    30    11    28    1
    31    12    29    1
    32    12    30    1
    33    12    31    1
    34    13    32    1
    35    14    33    1
    36    14    34    1
    37    14    35    1
    38    15    36    1
    39    15    37    1
    40    15    38    1
    41    16    39    1
    42    16    40    1
    43    16    41    1
