@<TRIPOS>MOLECULE
IMPHY014390
 61 61 0 0 0
SMALL
GASTEIGER

@<TRIPOS>ATOM
      1 O           7.1962   -1.7500    0.0000 O.2     1  UNK1       -0.2736
      2 O           7.1962   -2.7500    0.0000 O.3     1  UNK1       -0.4793
      3 O           6.3301   -4.2500    0.0000 O.2     1  UNK1       -0.2489
      4 O           6.3301    1.7500    0.0000 O.2     0  UNK0       -0.2761
      5 O           2.0000    4.2500    0.0000 O.2     1  UNK1       -0.2336
      6 N           5.4641   -1.7500    0.0000 N.am    1  UNK1       -0.2892
      7 N           7.1962    0.2500    0.0000 N.am    1  UNK1       -0.3042
      8 N           4.5981    2.7500    0.0000 N.pl3   1  UNK1       -0.1152
      9 N           3.7320    4.2500    0.0000 N.am    1  UNK1       -0.1582
     10 N           2.8660    2.7500    0.0000 N.pl3   1  UNK1       -0.2905
     11 N           2.8660    5.7500    0.0000 N.am    1  UNK1       -0.2892
     12 C           6.3301   -0.2500    0.0000 C.3     1  UNK1        0.0996
     13 C           5.4641    0.2500    0.0000 C.3     1  UNK1       -0.0230
     14 C           5.4641   -2.7500    0.0000 C.3     1  UNK1        0.1264
     15 C           6.3301   -1.2500    0.0000 C.2     1  UNK1        0.2363
     16 C           5.4641    1.2500    0.0000 C.3     1  UNK1       -0.0165
     17 C           4.5981   -3.2500    0.0000 C.3     1  UNK1        0.0014
     18 C           4.5981   -1.2500    0.0000 C.3     0  UNK0        0.0041
     19 C           4.5981    1.7500    0.0000 C.3     1  UNK1        0.1046
     20 C           4.5981   -4.2500    0.0000 C.ar    1  UNK1       -0.0451
     21 C           6.3301   -3.2500    0.0000 C.2     1  UNK1        0.3258
     22 C           7.1962    1.2500    0.0000 C.2     0  UNK0        0.2105
     23 C           3.7320   -4.7500    0.0000 C.ar    1  UNK1       -0.0585
     24 C           5.4641   -4.7500    0.0000 C.ar    1  UNK1       -0.0585
     25 C           8.0622    1.7500    0.0000 C.3     0  UNK0        0.0122
     26 C           3.7320   -5.7500    0.0000 C.ar    1  UNK1       -0.0615
     27 C           5.4641   -5.7500    0.0000 C.ar    1  UNK1       -0.0615
     28 C           4.5981   -6.2500    0.0000 C.ar    1  UNK1       -0.0617
     29 C           3.7320    3.2500    0.0000 C.2     1  UNK1        0.3786
     30 C           2.8660    4.7500    0.0000 C.2     1  UNK1        0.3641
     31 C           2.0000    6.2500    0.0000 C.3     1  UNK1        0.0028
     32 H           6.8671   -0.5600    0.0000 H       1  UNK1        0.0594
     33 H           4.8535    0.3577    0.0000 H       1  UNK1        0.0289
     34 H           5.2520   -0.3326    0.0000 H       1  UNK1        0.0289
     35 H           6.0010   -2.4400    0.0000 H       1  UNK1        0.0620
     36 H           6.0747    1.1423    0.0000 H       1  UNK1        0.0298
     37 H           5.6762    1.8326    0.0000 H       1  UNK1        0.0298
     38 H           4.3860   -2.6674    0.0000 H       1  UNK1        0.0337
     39 H           3.9875   -3.3577    0.0000 H       1  UNK1        0.0337
     40 H           7.7331   -0.0600    0.0000 H       1  UNK1        0.1494
     41 H           4.9081   -0.7131    0.0000 H       0  UNK0        0.0429
     42 H           4.0611   -0.9400    0.0000 H       0  UNK0        0.0429
     43 H           4.2881   -1.7869    0.0000 H       0  UNK0        0.0429
     44 H           3.9875    1.8577    0.0000 H       1  UNK1        0.0693
     45 H           4.3860    1.1674    0.0000 H       1  UNK1        0.0693
     46 H           3.1951   -4.4400    0.0000 H       1  UNK1        0.0620
     47 H           6.0010   -4.4400    0.0000 H       1  UNK1        0.0620
     48 H           8.3722    1.2131    0.0000 H       0  UNK0        0.0322
     49 H           8.5991    2.0600    0.0000 H       0  UNK0        0.0322
     50 H           7.7522    2.2869    0.0000 H       0  UNK0        0.0322
     51 H           3.1951   -6.0600    0.0000 H       1  UNK1        0.0618
     52 H           6.0010   -6.0600    0.0000 H       1  UNK1        0.0618
     53 H           7.7331   -3.0600    0.0000 H       1  UNK1        0.2951
     54 H           4.5981   -6.8700    0.0000 H       1  UNK1        0.0618
     55 H           4.2690    4.5600    0.0000 H       1  UNK1        0.2558
     56 H           2.3291    3.0600    0.0000 H       1  UNK1        0.2545
     57 H           2.8660    2.1300    0.0000 H       1  UNK1        0.2545
     58 H           3.4030    6.0600    0.0000 H       1  UNK1        0.1513
     59 H           2.3100    6.7869    0.0000 H       1  UNK1        0.0427
     60 H           1.4631    6.5600    0.0000 H       1  UNK1        0.0427
     61 H           1.6900    5.7131    0.0000 H       1  UNK1        0.0427
@<TRIPOS>BOND
     1     1    15    2
     2     2    21    1
     3     2    53    1
     4     3    21    2
     5     4    22    2
     6     5    30    2
     7    14     6    1
     8     6    15   am
     9     6    18    1
    10    12     7    1
    11     7    22   am
    12     7    40    1
    13     8    19    1
    14     8    29    2
    15     9    29    1
    16     9    30   am
    17     9    55    1
    18    10    29    1
    19    10    56    1
    20    10    57    1
    21    11    30   am
    22    11    31    1
    23    11    58    1
    24    12    13    1
    25    12    15    1
    26    12    32    1
    27    13    16    1
    28    13    33    1
    29    13    34    1
    30    14    17    1
    31    14    21    1
    32    14    35    1
    33    16    19    1
    34    16    36    1
    35    16    37    1
    36    17    20    1
    37    17    38    1
    38    17    39    1
    39    18    41    1
    40    18    42    1
    41    18    43    1
    42    19    44    1
    43    19    45    1
    44    20    23   ar
    45    20    24   ar
    46    22    25    1
    47    23    26   ar
    48    23    46    1
    49    24    27   ar
    50    24    47    1
    51    25    48    1
    52    25    49    1
    53    25    50    1
    54    26    28   ar
    55    26    51    1
    56    27    28   ar
    57    27    52    1
    58    28    54    1
    59    31    59    1
    60    31    60    1
    61    31    61    1
