@<TRIPOS>MOLECULE
IMPHY014362
 65 70 0 0 0
SMALL
GASTEIGER

@<TRIPOS>ATOM
      1 O           6.9088    2.7653    0.0000 O.3     1  UNL1       -0.4828
      2 O           6.0427   -2.7347    0.0000 O.3     1  UNL1       -0.4828
      3 O           9.5068    0.2653    0.0000 O.3     1  UNL1       -0.4524
      4 O           6.9088    5.7653    0.0000 O.2     1  UNL1       -0.2917
      5 O           3.4446   -1.2347    0.0000 O.2     1  UNL1       -0.2917
      6 O           5.1603    5.7999    0.0000 O.3     1  UNL1       -0.5058
      7 O           3.3786    2.7411    0.0000 O.3     1  UNL1       -0.4949
      8 O           2.5405   -2.7316    0.0000 O.3     1  UNL1       -0.5058
      9 O          11.2389    1.2653    0.0000 O.3     1  UNL1       -0.5033
     10 O           4.2986   -5.8040    0.0000 O.3     1  UNL1       -0.5065
     11 C           7.7748    3.2653    0.0000 C.3     1  UNL1        0.1323
     12 C           6.0427   -1.7347    0.0000 C.3     1  UNL1        0.1322
     13 C           7.7748    4.2653    0.0000 C.3     1  UNL1        0.0520
     14 C           5.1767   -1.2347    0.0000 C.3     1  UNL1        0.0520
     15 C           8.6408    2.7653    0.0000 C.ar    1  UNL1       -0.0032
     16 C           6.9088   -1.2347    0.0000 C.ar    1  UNL1       -0.0067
     17 C           6.0427    4.2653    0.0000 C.ar    1  UNL1        0.1007
     18 C           6.9088    4.7653    0.0000 C.2     1  UNL1        0.1740
     19 C           6.0427    3.2653    0.0000 C.ar    1  UNL1        0.1389
     20 C           4.3107   -1.7347    0.0000 C.2     1  UNL1        0.1740
     21 C           4.3107   -2.7347    0.0000 C.ar    1  UNL1        0.1007
     22 C           5.1767   -3.2347    0.0000 C.ar    1  UNL1        0.1389
     23 C           8.6408    1.7653    0.0000 C.ar    1  UNL1       -0.0090
     24 C           9.5068    3.2653    0.0000 C.ar    1  UNL1       -0.0514
     25 C           6.9088   -0.2347    0.0000 C.ar    1  UNL1       -0.0516
     26 C           7.7748   -1.7347    0.0000 C.ar    1  UNL1       -0.0516
     27 C           9.5068    1.2653    0.0000 C.ar    1  UNL1        0.1700
     28 C           5.1488    4.7999    0.0000 C.ar    1  UNL1        0.1343
     29 C           5.1488    2.7306    0.0000 C.ar    1  UNL1        0.0227
     30 C           3.4007   -3.2416    0.0000 C.ar    1  UNL1        0.1343
     31 C           8.6408   -0.2347    0.0000 C.ar    1  UNL1        0.1286
     32 C           5.1928   -4.2762    0.0000 C.ar    1  UNL1        0.0225
     33 C           7.7748    0.2653    0.0000 C.ar    1  UNL1       -0.0190
     34 C           8.6408   -1.2347    0.0000 C.ar    1  UNL1       -0.0190
     35 C          10.3728    2.7653    0.0000 C.ar    1  UNL1       -0.0161
     36 C          10.3728    1.7653    0.0000 C.ar    1  UNL1        0.1591
     37 C           4.2427    3.2444    0.0000 C.ar    1  UNL1        0.1271
     38 C           4.2427    4.2861    0.0000 C.ar    1  UNL1        0.0225
     39 C           3.3926   -4.2832    0.0000 C.ar    1  UNL1        0.0222
     40 C           4.2947   -4.8040    0.0000 C.ar    1  UNL1        0.1238
     41 C           2.5107    3.2378    0.0000 C.3     1  UNL1        0.0788
     42 H           7.7748    2.6453    0.0000 H       1  UNL1        0.0789
     43 H           6.0427   -1.1147    0.0000 H       1  UNL1        0.0789
     44 H           8.3854    4.1576    0.0000 H       1  UNL1        0.0385
     45 H           7.9868    4.8479    0.0000 H       1  UNL1        0.0385
     46 H           5.5752   -0.7598    0.0000 H       1  UNL1        0.0385
     47 H           4.7782   -0.7598    0.0000 H       1  UNL1        0.0385
     48 H           8.1039    1.4553    0.0000 H       1  UNL1        0.0659
     49 H           9.5068    3.8853    0.0000 H       1  UNL1        0.0623
     50 H           6.3718    0.0753    0.0000 H       1  UNL1        0.0623
     51 H           7.7748   -2.3547    0.0000 H       1  UNL1        0.0623
     52 H           5.1560    2.1106    0.0000 H       1  UNL1        0.0691
     53 H           5.7332   -4.5800    0.0000 H       1  UNL1        0.0691
     54 H           7.7748    0.8853    0.0000 H       1  UNL1        0.0654
     55 H           9.1777   -1.5447    0.0000 H       1  UNL1        0.0654
     56 H          10.9098    3.0753    0.0000 H       1  UNL1        0.0655
     57 H           3.7070    4.5982    0.0000 H       1  UNL1        0.0691
     58 H           2.8545   -4.5911    0.0000 H       1  UNL1        0.0691
     59 H           4.6270    6.1161    0.0000 H       1  UNL1        0.2922
     60 H           2.0000   -3.0354    0.0000 H       1  UNL1        0.2922
     61 H          11.7758    1.5753    0.0000 H       1  UNL1        0.2923
     62 H           3.7628   -6.1161    0.0000 H       1  UNL1        0.2921
     63 H           2.8186    3.7759    0.0000 H       1  UNL1        0.0660
     64 H           1.9726    3.5457    0.0000 H       1  UNL1        0.0660
     65 H           2.2028    2.6996    0.0000 H       1  UNL1        0.0660
@<TRIPOS>BOND
     1     1    11    1
     2     1    19    1
     3     2    12    1
     4     2    22    1
     5     3    27    1
     6     3    31    1
     7     4    18    2
     8     5    20    2
     9     6    28    1
    10     6    59    1
    11     7    37    1
    12     7    41    1
    13     8    30    1
    14     8    60    1
    15     9    36    1
    16     9    61    1
    17    10    40    1
    18    10    62    1
    19    11    13    1
    20    11    15    1
    21    11    42    1
    22    12    14    1
    23    12    16    1
    24    12    43    1
    25    13    18    1
    26    13    44    1
    27    13    45    1
    28    14    20    1
    29    14    46    1
    30    14    47    1
    31    15    23   ar
    32    15    24   ar
    33    16    25   ar
    34    16    26   ar
    35    17    18    1
    36    17    19   ar
    37    17    28   ar
    38    19    29   ar
    39    20    21    1
    40    21    22   ar
    41    21    30   ar
    42    22    32   ar
    43    23    27   ar
    44    23    48    1
    45    24    35   ar
    46    24    49    1
    47    25    33   ar
    48    25    50    1
    49    26    34   ar
    50    26    51    1
    51    27    36   ar
    52    28    38   ar
    53    29    37   ar
    54    29    52    1
    55    30    39   ar
    56    31    33   ar
    57    31    34   ar
    58    32    40   ar
    59    32    53    1
    60    33    54    1
    61    34    55    1
    62    35    36   ar
    63    35    56    1
    64    37    38   ar
    65    38    57    1
    66    39    40   ar
    67    39    58    1
    68    41    63    1
    69    41    64    1
    70    41    65    1
