@<TRIPOS>MOLECULE
IMPHY008491
 44 46 0 0 0
SMALL
GASTEIGER

@<TRIPOS>ATOM
      1 O           6.2196   -2.4730    0.0000 O.3     1  UNL1       -0.3884
      2 O           3.6015   -0.6579    0.0000 O.3     1  UNL1       -0.4608
      3 O           7.2286    2.5148    0.0000 O.3     1  UNL1       -0.4533
      4 O           8.9684    2.8730    0.0000 O.2     1  UNL1       -0.2453
      5 O           3.3720   -2.3747    0.0000 O.2     1  UNL1       -0.2512
      6 C           6.1788   -0.5040    0.0000 C.3     1  UNL1       -0.0017
      7 C           5.2778   -0.0701    0.0000 C.3     1  UNL1        0.0226
      8 C           6.0428   -1.4887    0.0000 C.3     1  UNL1        0.0702
      9 C           4.5927   -0.7904    0.0000 C.3     1  UNL1        0.1124
     10 C           5.0645   -1.6654    0.0000 C.3     1  UNL1        0.0139
     11 C           7.0798   -0.0701    0.0000 C.3     1  UNL1       -0.0362
     12 C           7.3023    0.9048    0.0000 C.3     1  UNL1        0.0315
     13 C           5.0553    0.9048    0.0000 C.2     1  UNL1       -0.0662
     14 C           6.6788    1.6866    0.0000 C.3     1  UNL1        0.1288
     15 C           7.0335   -1.6247    0.0000 C.3     1  UNL1       -0.0357
     16 C           5.6788    1.6866    0.0000 C.2     1  UNL1       -0.0440
     17 C           8.2321    1.2565    0.0000 C.2     1  UNL1        0.0364
     18 C           4.0804    1.1273    0.0000 C.3     1  UNL1       -0.0433
     19 C           8.1866    2.2496    0.0000 C.2     1  UNL1        0.3356
     20 C           9.0676    0.7071    0.0000 C.2     1  UNL1       -0.0883
     21 C           2.9912   -1.4500    0.0000 C.2     1  UNL1        0.3042
     22 C           2.0000   -1.3175    0.0000 C.3     1  UNL1        0.0332
     23 H           6.8658   -1.0045    0.0000 H       1  UNL1        0.0335
     24 H           4.4582    0.1549    0.0000 H       1  UNL1        0.0385
     25 H           4.3867   -0.2057    0.0000 H       1  UNL1        0.0741
     26 H           4.4909   -1.9007    0.0000 H       1  UNL1        0.0329
     27 H           5.2382   -2.2606    0.0000 H       1  UNL1        0.0329
     28 H           7.2177   -0.6746    0.0000 H       1  UNL1        0.0276
     29 H           7.6998   -0.0701    0.0000 H       1  UNL1        0.0276
     30 H           7.9431    0.3464    0.0000 H       1  UNL1        0.0390
     31 H           6.2770    2.4357    0.0000 H       1  UNL1        0.0785
     32 H           6.9492   -2.2389    0.0000 H       1  UNL1        0.0257
     33 H           7.6478   -1.7090    0.0000 H       1  UNL1        0.0257
     34 H           7.1178   -1.0104    0.0000 H       1  UNL1        0.0257
     35 H           5.4098    2.2452    0.0000 H       1  UNL1        0.0608
     36 H           5.7460   -2.8730    0.0000 H       1  UNL1        0.2102
     37 H           4.2183    1.7318    0.0000 H       1  UNL1        0.0274
     38 H           3.4759    1.2653    0.0000 H       1  UNL1        0.0274
     39 H           3.9424    0.5229    0.0000 H       1  UNL1        0.0274
     40 H           9.0316    0.0881    0.0000 H       1  UNL1        0.0540
     41 H           9.6216    0.9854    0.0000 H       1  UNL1        0.0540
     42 H           2.0822   -0.7030    0.0000 H       1  UNL1        0.0342
     43 H           1.3855   -1.2354    0.0000 H       1  UNL1        0.0342
     44 H           1.9178   -1.9320    0.0000 H       1  UNL1        0.0342
@<TRIPOS>BOND
     1     8     1    1
     2     1    36    1
     3     9     2    1
     4     2    21    1
     5     3    14    1
     6     3    19    1
     7     4    19    2
     8     5    21    2
     9     6     7    1
    10     6     8    1
    11     6    11    1
    12     6    23    1
    13     7     9    1
    14     7    13    1
    15     7    24    1
    16     8    10    1
    17     8    15    1
    18     9    10    1
    19     9    25    1
    20    10    26    1
    21    10    27    1
    22    11    12    1
    23    11    28    1
    24    11    29    1
    25    12    14    1
    26    12    17    1
    27    12    30    1
    28    13    16    2
    29    13    18    1
    30    14    16    1
    31    14    31    1
    32    15    32    1
    33    15    33    1
    34    15    34    1
    35    16    35    1
    36    17    19    1
    37    17    20    2
    38    18    37    1
    39    18    38    1
    40    18    39    1
    41    20    40    1
    42    20    41    1
    43    21    22    1
    44    22    42    1
    45    22    43    1
    46    22    44    1
