@<TRIPOS>MOLECULE
IMPHY009726
 102 108 0 0 0
SMALL
GASTEIGER

@<TRIPOS>ATOM
      1 O           9.5840   -1.4688    0.0000 O.3     1  UNL1       -0.3719
      2 O           9.8321    0.8096    0.0000 O.3     1  UNL1       -0.4548
      3 O           5.4639   -0.6873    0.0000 O.3     1  UNL1       -0.4574
      4 O           7.2220   -3.7597    0.0000 O.3     1  UNL1       -0.4608
      5 O           6.5918    2.4220    0.0000 O.3     1  UNL1       -0.3440
      6 O           5.0498    1.7641    0.0000 O.3     1  UNL1       -0.3669
      7 O          10.6982   -0.6904    0.0000 O.2     1  UNL1       -0.2456
      8 O           4.5806   -2.1772    0.0000 O.2     1  UNL1       -0.2453
      9 O           5.4899   -3.7664    0.0000 O.2     1  UNL1       -0.2512
     10 O          10.5131    5.2630    0.0000 O.2     1  UNL1       -0.4707
     11 C           7.2341   -0.6904    0.0000 C.3     1  UNL1        0.0150
     12 C           8.1001   -1.1904    0.0000 C.3     1  UNL1        0.0087
     13 C           7.2341    0.3096    0.0000 C.3     1  UNL1       -0.0147
     14 C           8.1161   -2.2319    0.0000 C.3     1  UNL1        0.0343
     15 C           8.1001    0.8096    0.0000 C.3     1  UNL1        0.0346
     16 C           8.9661   -0.6904    0.0000 C.3     1  UNL1        0.1005
     17 C           8.9661    0.3096    0.0000 C.3     1  UNL1        0.1389
     18 C           6.3241   -1.1973    0.0000 C.3     1  UNL1        0.1127
     19 C           7.2181   -2.7597    0.0000 C.3     1  UNL1        0.1142
     20 C           9.1042   -2.3391    0.0000 C.3     1  UNL1        0.0573
     21 C           6.3160   -2.2389    0.0000 C.3     1  UNL1        0.0227
     22 C           6.3235    0.6740    0.0000 C.3     1  UNL1        0.0026
     23 C           6.3680   -0.1904    0.0000 C.3     1  UNL1       -0.0555
     24 C           8.2397    1.7804    0.0000 C.2     1  UNL1       -0.0317
     25 C           8.6261   -3.0921    0.0000 C.3     1  UNL1       -0.0537
     26 C           8.9661    1.3096    0.0000 C.3     1  UNL1       -0.0520
     27 C           7.5697    2.4966    0.0000 C.3     1  UNL1        0.0844
     28 C           6.0382    1.6124    0.0000 C.3     1  UNL1        0.1572
     29 C           9.1217    2.1961    0.0000 C.2     1  UNL1       -0.0627
     30 C           8.0433    3.3489    0.0000 C.3     1  UNL1       -0.0120
     31 C           9.0005    3.1635    0.0000 C.3     1  UNL1        0.0109
     32 C           9.9979    1.7141    0.0000 C.3     1  UNL1       -0.0429
     33 C          10.6982    0.3096    0.0000 C.2     1  UNL1        0.3323
     34 C           9.7308    3.8466    0.0000 C.ar    1  UNL1       -0.0025
     35 C           4.5921   -1.1772    0.0000 C.2     1  UNL1        0.3348
     36 C           6.3579   -4.2630    0.0000 C.2     1  UNL1        0.3042
     37 C           3.7319   -0.6673    0.0000 C.2     1  UNL1        0.0293
     38 C          10.7127    3.6573    0.0000 C.ar    1  UNL1       -0.0202
     39 C           9.6074    4.8390    0.0000 C.ar    1  UNL1        0.0954
     40 C          11.5642    0.8096    0.0000 C.2     1  UNL1        0.0231
     41 C           6.3617   -5.2630    0.0000 C.3     1  UNL1        0.0332
     42 C          11.1962    4.5327    0.0000 C.ar    1  UNL1        0.0920
     43 C           3.7435    0.3327    0.0000 C.3     1  UNL1       -0.0333
     44 C           2.8602   -1.1572    0.0000 C.2     1  UNL1       -0.0774
     45 C          12.4302    0.3096    0.0000 C.2     1  UNL1       -0.0478
     46 C           2.0000   -0.6472    0.0000 C.3     1  UNL1       -0.0461
     47 C          13.2962    0.8096    0.0000 C.ar    1  UNL1       -0.0248
     48 C          14.1623    0.3096    0.0000 C.ar    1  UNL1       -0.0546
     49 C          13.2962    1.8096    0.0000 C.ar    1  UNL1       -0.0546
     50 C          15.0283    0.8096    0.0000 C.ar    1  UNL1       -0.0612
     51 C          14.1623    2.3096    0.0000 C.ar    1  UNL1       -0.0612
     52 C          15.0283    1.8096    0.0000 C.ar    1  UNL1       -0.0617
     53 H           7.3673   -1.6211    0.0000 H       1  UNL1        0.0341
     54 H           7.9702   -0.1154    0.0000 H       1  UNL1        0.0318
     55 H           9.7687   -0.4106    0.0000 H       1  UNL1        0.0636
     56 H           9.7022   -0.1154    0.0000 H       1  UNL1        0.0769
     57 H           5.5839   -1.6152    0.0000 H       1  UNL1        0.0741
     58 H           7.9567   -3.1804    0.0000 H       1  UNL1        0.0741
     59 H           8.9568   -2.9413    0.0000 H       1  UNL1        0.0567
     60 H           9.6818   -2.5644    0.0000 H       1  UNL1        0.0567
     61 H           5.7060   -2.1281    0.0000 H       1  UNL1        0.0337
     62 H           6.1025   -2.8209    0.0000 H       1  UNL1        0.0337
     63 H           5.7050    0.6308    0.0000 H       1  UNL1        0.0317
     64 H           6.2275    0.0615    0.0000 H       1  UNL1        0.0317
     65 H           6.6780    0.3465    0.0000 H       1  UNL1        0.0236
     66 H           5.8311    0.1196    0.0000 H       1  UNL1        0.0236
     67 H           6.0580   -0.7274    0.0000 H       1  UNL1        0.0236
     68 H           8.0928   -3.4083    0.0000 H       1  UNL1        0.0237
     69 H           8.9423   -3.6254    0.0000 H       1  UNL1        0.0237
     70 H           9.1594   -2.7759    0.0000 H       1  UNL1        0.0237
     71 H           9.2761    0.7726    0.0000 H       1  UNL1        0.0239
     72 H           9.5030    1.6196    0.0000 H       1  UNL1        0.0239
     73 H           8.6561    1.8465    0.0000 H       1  UNL1        0.0239
     74 H           7.1111    3.2123    0.0000 H       1  UNL1        0.0644
     75 H           5.4816    0.9700    0.0000 H       1  UNL1        0.0908
     76 H           8.2245    3.9418    0.0000 H       1  UNL1        0.0302
     77 H           7.4727    3.5914    0.0000 H       1  UNL1        0.0302
     78 H           8.7653    3.9803    0.0000 H       1  UNL1        0.0396
     79 H           9.6990    1.1709    0.0000 H       1  UNL1        0.0275
     80 H          10.5411    1.4153    0.0000 H       1  UNL1        0.0275
     81 H          10.2967    2.2574    0.0000 H       1  UNL1        0.0275
     82 H           4.8248    2.3419    0.0000 H       1  UNL1        0.2125
     83 H          10.9756    3.0958    0.0000 H       1  UNL1        0.0652
     84 H           9.0647    5.1387    0.0000 H       1  UNL1        0.1032
     85 H          11.5642    1.4296    0.0000 H       1  UNL1        0.0689
     86 H           5.7417   -5.2654    0.0000 H       1  UNL1        0.0342
     87 H           6.3641   -5.8830    0.0000 H       1  UNL1        0.0342
     88 H           6.9817   -5.2606    0.0000 H       1  UNL1        0.0342
     89 H          11.8114    4.6092    0.0000 H       1  UNL1        0.1029
     90 H           4.3635    0.3255    0.0000 H       1  UNL1        0.0280
     91 H           3.7507    0.9526    0.0000 H       1  UNL1        0.0280
     92 H           3.1235    0.3398    0.0000 H       1  UNL1        0.0280
     93 H           2.8530   -1.7772    0.0000 H       1  UNL1        0.0574
     94 H          12.4302   -0.3104    0.0000 H       1  UNL1        0.0626
     95 H           2.3162   -0.1139    0.0000 H       1  UNL1        0.0272
     96 H           1.4667   -0.3310    0.0000 H       1  UNL1        0.0272
     97 H           1.6838   -1.1806    0.0000 H       1  UNL1        0.0272
     98 H          14.1623   -0.3104    0.0000 H       1  UNL1        0.0623
     99 H          12.7593    2.1196    0.0000 H       1  UNL1        0.0623
    100 H          15.5652    0.4996    0.0000 H       1  UNL1        0.0618
    101 H          14.1623    2.9296    0.0000 H       1  UNL1        0.0618
    102 H          15.5652    2.1196    0.0000 H       1  UNL1        0.0618
@<TRIPOS>BOND
     1     1    16    1
     2     1    20    1
     3     2    17    1
     4     2    33    1
     5     3    18    1
     6     3    35    1
     7     4    19    1
     8     4    36    1
     9     5    27    1
    10     5    28    1
    11     6    28    1
    12     6    82    1
    13     7    33    2
    14     8    35    2
    15     9    36    2
    16    10    39   ar
    17    10    42   ar
    18    11    12    1
    19    11    13    1
    20    11    18    1
    21    11    23    1
    22    12    14    1
    23    12    16    1
    24    12    53    1
    25    13    15    1
    26    13    22    1
    27    13    54    1
    28    14    19    1
    29    14    20    1
    30    14    25    1
    31    15    17    1
    32    15    24    1
    33    15    26    1
    34    16    17    1
    35    16    55    1
    36    17    56    1
    37    18    21    1
    38    18    57    1
    39    19    21    1
    40    19    58    1
    41    20    59    1
    42    20    60    1
    43    21    61    1
    44    21    62    1
    45    22    28    1
    46    22    63    1
    47    22    64    1
    48    23    65    1
    49    23    66    1
    50    23    67    1
    51    24    27    1
    52    24    29    2
    53    25    68    1
    54    25    69    1
    55    25    70    1
    56    26    71    1
    57    26    72    1
    58    26    73    1
    59    27    30    1
    60    27    74    1
    61    28    75    1
    62    29    31    1
    63    29    32    1
    64    30    31    1
    65    30    76    1
    66    30    77    1
    67    31    34    1
    68    31    78    1
    69    32    79    1
    70    32    80    1
    71    32    81    1
    72    33    40    1
    73    34    38   ar
    74    34    39   ar
    75    35    37    1
    76    36    41    1
    77    37    43    1
    78    37    44    2
    79    38    42   ar
    80    38    83    1
    81    39    84    1
    82    40    45    2
    83    40    85    1
    84    41    86    1
    85    41    87    1
    86    41    88    1
    87    42    89    1
    88    43    90    1
    89    43    91    1
    90    43    92    1
    91    44    46    1
    92    44    93    1
    93    45    47    1
    94    45    94    1
    95    46    95    1
    96    46    96    1
    97    46    97    1
    98    47    48   ar
    99    47    49   ar
   100    48    50   ar
   101    48    98    1
   102    49    51   ar
   103    49    99    1
   104    50    52   ar
   105    50   100    1
   106    51    52   ar
   107    51   101    1
   108    52   102    1
