@<TRIPOS>MOLECULE
IMPHY017418
 61 60 0 0 0
SMALL
GASTEIGER

@<TRIPOS>ATOM
      1 O          12.0632   -1.8100    0.0000 O.3     1  UNL1       -0.4619
      2 O          11.1972   -3.3100    0.0000 O.2     1  UNL1       -0.2509
      3 O          13.7953   -0.8100    0.0000 O.3     1  UNL1       -0.3861
      4 O          15.5273   -1.8100    0.0000 O.3     1  UNL1       -0.3923
      5 C           7.7331   -2.3100    0.0000 C.3     1  UNL1       -0.0530
      6 C           6.8671   -1.8100    0.0000 C.3     1  UNL1       -0.0528
      7 C           8.5991   -1.8100    0.0000 C.3     1  UNL1       -0.0526
      8 C           6.0010   -2.3100    0.0000 C.3     1  UNL1       -0.0496
      9 C           9.4651   -2.3100    0.0000 C.3     1  UNL1       -0.0430
     10 C           5.1350   -1.8100    0.0000 C.3     1  UNL1       -0.0348
     11 C          10.3312   -1.8100    0.0000 C.3     1  UNL1        0.0449
     12 C           4.2690   -2.3100    0.0000 C.2     1  UNL1       -0.0876
     13 C          11.1972   -2.3100    0.0000 C.2     1  UNL1        0.3072
     14 C           3.4030   -1.8100    0.0000 C.2     1  UNL1       -0.0842
     15 C          12.9292   -2.3100    0.0000 C.3     1  UNL1        0.1204
     16 C          13.7953   -1.8100    0.0000 C.3     1  UNL1        0.1121
     17 C           3.4030   -0.8100    0.0000 C.3     1  UNL1       -0.0165
     18 C          14.6613   -2.3100    0.0000 C.3     1  UNL1        0.0733
     19 C           2.5369   -0.3100    0.0000 C.2     1  UNL1       -0.0839
     20 C           2.5369    0.6900    0.0000 C.2     1  UNL1       -0.0839
     21 C           3.4030    1.1900    0.0000 C.3     1  UNL1       -0.0165
     22 C           3.4030    2.1900    0.0000 C.2     1  UNL1       -0.0842
     23 C           4.2690    2.6900    0.0000 C.2     1  UNL1       -0.0879
     24 C           5.1350    2.1900    0.0000 C.3     1  UNL1       -0.0376
     25 C           6.0010    2.6900    0.0000 C.3     1  UNL1       -0.0618
     26 H           7.3346   -2.7849    0.0000 H       1  UNL1        0.0265
     27 H           8.1316   -2.7849    0.0000 H       1  UNL1        0.0265
     28 H           7.2656   -1.3350    0.0000 H       1  UNL1        0.0265
     29 H           6.4685   -1.3350    0.0000 H       1  UNL1        0.0265
     30 H           8.9976   -1.3350    0.0000 H       1  UNL1        0.0265
     31 H           8.2006   -1.3350    0.0000 H       1  UNL1        0.0265
     32 H           5.6025   -2.7849    0.0000 H       1  UNL1        0.0268
     33 H           6.3996   -2.7849    0.0000 H       1  UNL1        0.0268
     34 H           9.0666   -2.7849    0.0000 H       1  UNL1        0.0270
     35 H           9.8637   -2.7849    0.0000 H       1  UNL1        0.0270
     36 H           5.5335   -1.3350    0.0000 H       1  UNL1        0.0307
     37 H           4.7365   -1.3350    0.0000 H       1  UNL1        0.0307
     38 H          10.7297   -1.3350    0.0000 H       1  UNL1        0.0377
     39 H           9.9326   -1.3350    0.0000 H       1  UNL1        0.0377
     40 H           4.2690   -2.9300    0.0000 H       1  UNL1        0.0569
     41 H           2.8660   -2.1200    0.0000 H       1  UNL1        0.0572
     42 H          12.5307   -2.7849    0.0000 H       1  UNL1        0.0724
     43 H          13.3278   -2.7849    0.0000 H       1  UNL1        0.0724
     44 H          14.5314   -1.3850    0.0000 H       1  UNL1        0.0650
     45 H           4.0135   -0.9177    0.0000 H       1  UNL1        0.0350
     46 H           3.6150   -0.2274    0.0000 H       1  UNL1        0.0350
     47 H          14.2628   -2.7849    0.0000 H       1  UNL1        0.0584
     48 H          15.0598   -2.7849    0.0000 H       1  UNL1        0.0584
     49 H           2.0000   -0.6200    0.0000 H       1  UNL1        0.0572
     50 H           2.0000    1.0000    0.0000 H       1  UNL1        0.0572
     51 H          14.3322   -0.5000    0.0000 H       1  UNL1        0.2100
     52 H           3.6150    0.6074    0.0000 H       1  UNL1        0.0350
     53 H           4.0135    1.2977    0.0000 H       1  UNL1        0.0350
     54 H          16.0643   -2.1200    0.0000 H       1  UNL1        0.2095
     55 H           2.8660    2.5000    0.0000 H       1  UNL1        0.0572
     56 H           4.2690    3.3100    0.0000 H       1  UNL1        0.0569
     57 H           4.7365    1.7150    0.0000 H       1  UNL1        0.0305
     58 H           5.5335    1.7150    0.0000 H       1  UNL1        0.0305
     59 H           6.3110    2.1531    0.0000 H       1  UNL1        0.0233
     60 H           6.5380    3.0000    0.0000 H       1  UNL1        0.0233
     61 H           5.6910    3.2269    0.0000 H       1  UNL1        0.0233
@<TRIPOS>BOND
     1     1    13    1
     2     1    15    1
     3     2    13    2
     4     3    16    1
     5     3    51    1
     6     4    18    1
     7     4    54    1
     8     5     6    1
     9     5     7    1
    10     5    26    1
    11     5    27    1
    12     6     8    1
    13     6    28    1
    14     6    29    1
    15     7     9    1
    16     7    30    1
    17     7    31    1
    18     8    10    1
    19     8    32    1
    20     8    33    1
    21     9    11    1
    22     9    34    1
    23     9    35    1
    24    10    12    1
    25    10    36    1
    26    10    37    1
    27    11    13    1
    28    11    38    1
    29    11    39    1
    30    12    14    2
    31    12    40    1
    32    14    17    1
    33    14    41    1
    34    15    16    1
    35    15    42    1
    36    15    43    1
    37    16    18    1
    38    16    44    1
    39    17    19    1
    40    17    45    1
    41    17    46    1
    42    18    47    1
    43    18    48    1
    44    19    20    2
    45    19    49    1
    46    20    21    1
    47    20    50    1
    48    21    22    1
    49    21    52    1
    50    21    53    1
    51    22    23    2
    52    22    55    1
    53    23    24    1
    54    23    56    1
    55    24    25    1
    56    24    57    1
    57    24    58    1
    58    25    59    1
    59    25    60    1
    60    25    61    1
