@<TRIPOS>MOLECULE
IMPHY010971
 55 59 0 0 0
SMALL
GASTEIGER

@<TRIPOS>ATOM
      1 N           8.7220    2.6557    0.0000 N.2     1  UNL1       -0.2919
      2 N           2.5357   -2.0357    0.0000 N.3     1  UNL1       -0.3270
      3 C           7.9288    1.0166    0.0000 C.3     1  UNL1        0.0135
      4 C           7.9288    0.0166    0.0000 C.3     1  UNL1       -0.0268
      5 C           7.0628   -0.4834    0.0000 C.3     1  UNL1       -0.0303
      6 C           6.1968    0.0166    0.0000 C.3     1  UNL1       -0.0285
      7 C           8.8750    1.3214    0.0000 C.3     1  UNL1       -0.0082
      8 C           7.0628    1.5166    0.0000 C.3     1  UNL1       -0.0416
      9 C           5.2868   -0.4902    0.0000 C.3     1  UNL1       -0.0079
     10 C           8.8750   -0.2881    0.0000 C.3     1  UNL1       -0.0488
     11 C           6.1968    1.0166    0.0000 C.3     1  UNL1       -0.0483
     12 C           9.4586    0.5166    0.0000 C.3     1  UNL1       -0.0472
     13 C           7.0789   -1.5249    0.0000 C.3     1  UNL1       -0.0311
     14 C           9.3691    2.1772    0.0000 C.3     1  UNL1        0.0513
     15 C           7.8306    1.9999    0.0000 C.2     1  UNL1        0.0067
     16 C           5.2787   -1.5318    0.0000 C.2     1  UNL1       -0.0658
     17 C           4.3599    0.0739    0.0000 C.3     1  UNL1       -0.0422
     18 C           6.1808   -2.0526    0.0000 C.2     1  UNL1       -0.0839
     19 C           5.2945    0.5097    0.0000 C.3     1  UNL1       -0.0556
     20 C           4.3433   -2.0816    0.0000 C.3     1  UNL1       -0.0160
     21 C           3.4120   -0.4541    0.0000 C.3     1  UNL1       -0.0367
     22 C           3.4037   -1.5390    0.0000 C.3     1  UNL1        0.0086
     23 C          10.3205    2.4854    0.0000 C.3     1  UNL1       -0.0424
     24 H           8.0188   -0.8286    0.0000 H       1  UNL1        0.0313
     25 H           7.8022   -0.9027    0.0000 H       1  UNL1        0.0310
     26 H           6.9329    0.4416    0.0000 H       1  UNL1        0.0312
     27 H           9.7239    1.3655    0.0000 H       1  UNL1        0.0330
     28 H           7.4613    1.9916    0.0000 H       1  UNL1        0.0274
     29 H           6.6643    1.9916    0.0000 H       1  UNL1        0.0274
     30 H           8.6240   -0.8550    0.0000 H       1  UNL1        0.0268
     31 H           9.4124   -0.5973    0.0000 H       1  UNL1        0.0268
     32 H           5.9847    1.5992    0.0000 H       1  UNL1        0.0269
     33 H           5.5862    0.9090    0.0000 H       1  UNL1        0.0269
     34 H           9.9195    0.1019    0.0000 H       1  UNL1        0.0269
     35 H           9.9195    0.9314    0.0000 H       1  UNL1        0.0269
     36 H           7.2969   -2.1053    0.0000 H       1  UNL1        0.0310
     37 H           7.6880   -1.4094    0.0000 H       1  UNL1        0.0310
     38 H           9.4690    2.7891    0.0000 H       1  UNL1        0.0544
     39 H           7.2641    2.2519    0.0000 H       1  UNL1        0.0784
     40 H           4.7681    0.5405    0.0000 H       1  UNL1        0.0274
     41 H           3.9700    0.5559    0.0000 H       1  UNL1        0.0274
     42 H           6.1832   -2.6726    0.0000 H       1  UNL1        0.0572
     43 H           5.9145    0.5050    0.0000 H       1  UNL1        0.0238
     44 H           5.2993    1.1297    0.0000 H       1  UNL1        0.0238
     45 H           4.6745    0.5145    0.0000 H       1  UNL1        0.0238
     46 H           3.9460   -2.5575    0.0000 H       1  UNL1        0.0325
     47 H           4.7443   -2.5544    0.0000 H       1  UNL1        0.0325
     48 H           3.2075    0.1312    0.0000 H       1  UNL1        0.0281
     49 H           2.8004   -0.5555    0.0000 H       1  UNL1        0.0281
     50 H           3.4025   -2.1590    0.0000 H       1  UNL1        0.0461
     51 H          10.5115    1.8955    0.0000 H       1  UNL1        0.0250
     52 H          10.9103    2.6764    0.0000 H       1  UNL1        0.0250
     53 H          10.1294    3.0752    0.0000 H       1  UNL1        0.0250
     54 H           2.0000   -1.7236    0.0000 H       1  UNL1        0.1185
     55 H           2.5334   -2.6557    0.0000 H       1  UNL1        0.1185
@<TRIPOS>BOND
     1     1    14    1
     2     1    15    2
     3    22     2    1
     4     2    54    1
     5     2    55    1
     6     3     4    1
     7     3     7    1
     8     3     8    1
     9     3    15    1
    10     4     5    1
    11     4    10    1
    12     4    24    1
    13     5     6    1
    14     5    13    1
    15     5    25    1
    16     6     9    1
    17     6    11    1
    18     6    26    1
    19     7    12    1
    20     7    14    1
    21     7    27    1
    22     8    11    1
    23     8    28    1
    24     8    29    1
    25     9    16    1
    26     9    17    1
    27     9    19    1
    28    10    12    1
    29    10    30    1
    30    10    31    1
    31    11    32    1
    32    11    33    1
    33    12    34    1
    34    12    35    1
    35    13    18    1
    36    13    36    1
    37    13    37    1
    38    14    23    1
    39    14    38    1
    40    15    39    1
    41    16    18    2
    42    16    20    1
    43    17    21    1
    44    17    40    1
    45    17    41    1
    46    18    42    1
    47    19    43    1
    48    19    44    1
    49    19    45    1
    50    20    22    1
    51    20    46    1
    52    20    47    1
    53    21    22    1
    54    21    48    1
    55    21    49    1
    56    22    50    1
    57    23    51    1
    58    23    52    1
    59    23    53    1
