@<TRIPOS>MOLECULE
IMPHY012784
 33 35 0 0 0
SMALL
GASTEIGER

@<TRIPOS>ATOM
      1 O           4.6660   -0.9031    0.0000 O.2     1  UNL1       -0.4470
      2 O           6.4144   -1.9377    0.0000 O.3     1  UNL1       -0.4885
      3 O           2.9176   -1.9377    0.0000 O.3     1  UNL1       -0.4914
      4 O           6.4144    2.1315    0.0000 O.3     1  UNL1       -0.5058
      5 O           4.6660    2.0969    0.0000 O.2     1  UNL1       -0.2863
      6 O           8.1962   -0.9273    0.0000 O.3     1  UNL1       -0.5031
      7 C           5.5321    0.5969    0.0000 C.ar    1  UNL1        0.1097
      8 C           5.5321   -0.4031    0.0000 C.ar    1  UNL1        0.1880
      9 C           3.8000    0.5969    0.0000 C.ar    1  UNL1        0.0684
     10 C           3.8000   -0.4031    0.0000 C.ar    1  UNL1        0.1808
     11 C           4.6660    1.0969    0.0000 C.ar    1  UNL1        0.2040
     12 C           6.4260   -0.9378    0.0000 C.ar    1  UNL1        0.2049
     13 C           6.4260    1.1316    0.0000 C.ar    1  UNL1        0.1349
     14 C           2.9061   -0.9378    0.0000 C.ar    1  UNL1        0.1628
     15 C           2.9061    1.1316    0.0000 C.ar    1  UNL1       -0.0471
     16 C           7.3321   -0.4239    0.0000 C.ar    1  UNL1        0.1657
     17 C           7.3321    0.6177    0.0000 C.ar    1  UNL1        0.0259
     18 C           2.0000   -0.4239    0.0000 C.ar    1  UNL1       -0.0162
     19 C           2.0000    0.6177    0.0000 C.ar    1  UNL1       -0.0574
     20 C           7.2746   -2.4477    0.0000 C.3     1  UNL1        0.0791
     21 C           2.0574   -2.4477    0.0000 C.3     1  UNL1        0.0790
     22 H           2.9132    1.7515    0.0000 H       1  UNL1        0.0626
     23 H           7.8678    0.9298    0.0000 H       1  UNL1        0.0692
     24 H           1.4643   -0.7360    0.0000 H       1  UNL1        0.0655
     25 H           1.4643    0.9298    0.0000 H       1  UNL1        0.0619
     26 H           6.9478    2.4477    0.0000 H       1  UNL1        0.2922
     27 H           8.7343   -0.6193    0.0000 H       1  UNL1        0.2923
     28 H           6.9584   -2.9810    0.0000 H       1  UNL1        0.0660
     29 H           7.8079   -2.7639    0.0000 H       1  UNL1        0.0660
     30 H           7.5908   -1.9144    0.0000 H       1  UNL1        0.0660
     31 H           1.7413   -1.9144    0.0000 H       1  UNL1        0.0660
     32 H           1.5241   -2.7639    0.0000 H       1  UNL1        0.0660
     33 H           2.3736   -2.9810    0.0000 H       1  UNL1        0.0660
@<TRIPOS>BOND
     1     1     8   ar
     2     1    10   ar
     3     2    12    1
     4     2    20    1
     5     3    14    1
     6     3    21    1
     7     4    13    1
     8     4    26    1
     9     5    11    2
    10     6    16    1
    11     6    27    1
    12     7     8   ar
    13     7    11   ar
    14     7    13   ar
    15     8    12   ar
    16     9    10   ar
    17     9    11   ar
    18     9    15   ar
    19    10    14   ar
    20    12    16   ar
    21    13    17   ar
    22    14    18   ar
    23    15    19   ar
    24    15    22    1
    25    16    17   ar
    26    17    23    1
    27    18    19   ar
    28    18    24    1
    29    19    25    1
    30    20    28    1
    31    20    29    1
    32    20    30    1
    33    21    31    1
    34    21    32    1
    35    21    33    1
