@<TRIPOS>MOLECULE
IMPHY002382
 67 71 0 0 0
SMALL
GASTEIGER

@<TRIPOS>ATOM
      1 O           5.4875   -2.4074    0.0000 O.3     1  UNL1       -0.3516
      2 O           8.1821   -2.9490    0.0000 O.3     1  UNL1       -0.4539
      3 O           4.6497   -2.9351    0.0000 O.3     1  UNL1       -0.3833
      4 O           7.2762   -4.4698    0.0000 O.2     1  UNL1       -0.2478
      5 O           2.8680   -1.9247    0.0000 O.2     1  UNL1       -0.2896
      6 O          10.1030   -0.1825    0.0000 O.2     1  UNL1       -0.4706
      7 O           4.6782    3.5980    0.0000 O.3     1  UNL1       -0.4649
      8 O           3.1682    2.7494    0.0000 O.2     1  UNL1       -0.2456
      9 C           6.3981   -1.9005    0.0000 C.3     1  UNL1        0.1244
     10 C           5.5320   -1.4005    0.0000 C.3     1  UNL1        0.0376
     11 C           7.2641   -1.4005    0.0000 C.3     1  UNL1        0.0419
     12 C           5.5320   -0.4005    0.0000 C.3     1  UNL1       -0.0171
     13 C           6.3820   -2.9420    0.0000 C.3     1  UNL1        0.1857
     14 C           7.2641   -0.4005    0.0000 C.3     1  UNL1       -0.0408
     15 C           6.3981    0.0995    0.0000 C.3     1  UNL1       -0.0477
     16 C           4.6381   -1.9352    0.0000 C.3     1  UNL1        0.1256
     17 C           8.1741   -1.9074    0.0000 C.3     1  UNL1        0.1391
     18 C           4.6381    0.1341    0.0000 C.3     1  UNL1        0.0182
     19 C           6.1822   -2.5263    0.0000 C.3     1  UNL1       -0.0537
     20 C           8.1301   -0.9005    0.0000 C.3     1  UNL1       -0.0531
     21 C           7.2800   -3.4698    0.0000 C.2     1  UNL1        0.3398
     22 C           3.7320   -0.3797    0.0000 C.2     1  UNL1        0.0063
     23 C           3.7320   -1.4213    0.0000 C.2     1  UNL1        0.1888
     24 C           5.1481    0.9943    0.0000 C.3     1  UNL1       -0.0516
     25 C           9.0343   -1.3974    0.0000 C.ar    1  UNL1        0.0310
     26 C           4.1482    1.0059    0.0000 C.2     1  UNL1       -0.0667
     27 C           2.8680    0.1236    0.0000 C.2     1  UNL1       -0.0683
     28 C           9.9525   -1.7935    0.0000 C.ar    1  UNL1       -0.0172
     29 C           9.1273   -0.4017    0.0000 C.ar    1  UNL1        0.0984
     30 C           4.6581    1.8661    0.0000 C.2     1  UNL1        0.0194
     31 C           2.0000   -0.3730    0.0000 C.3     1  UNL1       -0.0434
     32 C           2.8718    1.1236    0.0000 C.3     1  UNL1       -0.0434
     33 C          10.6130   -1.0427    0.0000 C.ar    1  UNL1        0.0921
     34 C           4.1682    2.7378    0.0000 C.2     1  UNL1        0.3314
     35 C           4.1882    4.4698    0.0000 C.3     1  UNL1        0.0820
     36 H           5.5386    0.4495    0.0000 H       1  UNL1        0.0319
     37 H           5.9486   -3.6732    0.0000 H       1  UNL1        0.0743
     38 H           7.8747   -0.5082    0.0000 H       1  UNL1        0.0273
     39 H           7.4762    0.1821    0.0000 H       1  UNL1        0.0273
     40 H           6.7966    0.5744    0.0000 H       1  UNL1        0.0269
     41 H           5.9995    0.5744    0.0000 H       1  UNL1        0.0269
     42 H           4.1042   -2.2503    0.0000 H       1  UNL1        0.0683
     43 H           8.7140   -2.2122    0.0000 H       1  UNL1        0.0793
     44 H           5.6452   -2.8363    0.0000 H       1  UNL1        0.0237
     45 H           6.4922   -3.0632    0.0000 H       1  UNL1        0.0237
     46 H           6.7191   -2.2162    0.0000 H       1  UNL1        0.0237
     47 H           8.4401   -1.4374    0.0000 H       1  UNL1        0.0237
     48 H           8.6671   -0.5905    0.0000 H       1  UNL1        0.0237
     49 H           7.8201   -0.3636    0.0000 H       1  UNL1        0.0237
     50 H           5.6814    0.6781    0.0000 H       1  UNL1        0.0241
     51 H           5.4643    1.5276    0.0000 H       1  UNL1        0.0241
     52 H           4.6148    1.3105    0.0000 H       1  UNL1        0.0241
     53 H           3.5282    1.0131    0.0000 H       1  UNL1        0.0583
     54 H           4.1164   -3.2513    0.0000 H       1  UNL1        0.2104
     55 H          10.0884   -2.3984    0.0000 H       1  UNL1        0.0653
     56 H           8.6618    0.0078    0.0000 H       1  UNL1        0.1033
     57 H           5.2781    1.8589    0.0000 H       1  UNL1        0.0686
     58 H           3.4918    1.1212    0.0000 H       1  UNL1        0.0274
     59 H           2.8742    1.7436    0.0000 H       1  UNL1        0.0274
     60 H           1.6921    0.1651    0.0000 H       1  UNL1        0.0274
     61 H           2.2518    1.1260    0.0000 H       1  UNL1        0.0274
     62 H           1.4619   -0.6810    0.0000 H       1  UNL1        0.0274
     63 H           2.3079   -0.9111    0.0000 H       1  UNL1        0.0274
     64 H          11.2303   -1.1004    0.0000 H       1  UNL1        0.1029
     65 H           4.7287    4.7735    0.0000 H       1  UNL1        0.0661
     66 H           3.8844    5.0102    0.0000 H       1  UNL1        0.0661
     67 H           3.6477    4.1660    0.0000 H       1  UNL1        0.0661
@<TRIPOS>BOND
     1     9     1    1
     2     1    13    1
     3     2    17    1
     4     2    21    1
     5    16     3    1
     6     3    54    1
     7     4    21    2
     8     5    23    2
     9     6    29   ar
    10     6    33   ar
    11     7    34    1
    12     7    35    1
    13     8    34    2
    14     9    10    1
    15     9    11    1
    16     9    13    1
    17    10    12    1
    18    10    16    1
    19    10    19    1
    20    11    14    1
    21    11    17    1
    22    11    20    1
    23    12    15    1
    24    12    18    1
    25    12    36    1
    26    13    21    1
    27    13    37    1
    28    14    15    1
    29    14    38    1
    30    14    39    1
    31    15    40    1
    32    15    41    1
    33    16    23    1
    34    16    42    1
    35    17    25    1
    36    17    43    1
    37    18    22    1
    38    18    24    1
    39    18    26    1
    40    19    44    1
    41    19    45    1
    42    19    46    1
    43    20    47    1
    44    20    48    1
    45    20    49    1
    46    22    23    1
    47    22    27    2
    48    24    50    1
    49    24    51    1
    50    24    52    1
    51    25    28   ar
    52    25    29   ar
    53    26    30    2
    54    26    53    1
    55    27    31    1
    56    27    32    1
    57    28    33   ar
    58    28    55    1
    59    29    56    1
    60    30    34    1
    61    30    57    1
    62    31    60    1
    63    31    62    1
    64    31    63    1
    65    32    58    1
    66    32    59    1
    67    32    61    1
    68    33    64    1
    69    35    65    1
    70    35    66    1
    71    35    67    1
