@<TRIPOS>MOLECULE
IMPHY009500
 57 60 0 0 0
SMALL
GASTEIGER

@<TRIPOS>ATOM
      1 O           5.1350   -1.0770    0.0000 O.3     1  UNL1       -0.3313
      2 O           6.8671   -1.0770    0.0000 O.3     1  UNL1       -0.4599
      3 O           5.1350   -4.0770    0.0000 O.3     1  UNL1       -0.3864
      4 O           3.4030   -3.0770    0.0000 O.3     1  UNL1       -0.3865
      5 O           6.8671   -3.0770    0.0000 O.3     1  UNL1       -0.3829
      6 O           8.6504    1.9372    0.0000 O.3     1  UNL1       -0.4828
      7 O           2.5369   -1.5770    0.0000 O.3     1  UNL1       -0.3924
      8 O           8.6158   -1.0626    0.0000 O.2     1  UNL1       -0.2917
      9 O           5.1208    2.0022    0.0000 O.3     1  UNL1       -0.5065
     10 O          12.9976    3.3870    0.0000 O.3     1  UNL1       -0.4915
     11 O          12.9745    1.3872    0.0000 O.3     1  UNL1       -0.5033
     12 C           5.1350   -3.0770    0.0000 C.3     1  UNL1        0.1152
     13 C           4.2690   -2.5770    0.0000 C.3     1  UNL1        0.1120
     14 C           6.0010   -2.5770    0.0000 C.3     1  UNL1        0.1454
     15 C           4.2690   -1.5770    0.0000 C.3     1  UNL1        0.1140
     16 C           6.0010   -1.5770    0.0000 C.3     1  UNL1        0.2308
     17 C           3.4030   -1.0770    0.0000 C.3     1  UNL1        0.0731
     18 C           6.8671   -0.0770    0.0000 C.ar    1  UNL1        0.1414
     19 C           7.7671    0.4473    0.0000 C.ar    1  UNL1        0.1010
     20 C           9.5106    1.4272    0.0000 C.3     1  UNL1        0.1323
     21 C           9.4991    0.4273    0.0000 C.3     1  UNL1        0.0520
     22 C           7.7787    1.4472    0.0000 C.ar    1  UNL1        0.1389
     23 C           8.6273   -0.0627    0.0000 C.2     1  UNL1        0.1740
     24 C           5.9670    0.4473    0.0000 C.ar    1  UNL1        0.0226
     25 C          10.3824    1.9172    0.0000 C.ar    1  UNL1       -0.0033
     26 C           6.8910    1.9922    0.0000 C.ar    1  UNL1        0.0225
     27 C           5.9790    1.4889    0.0000 C.ar    1  UNL1        0.1238
     28 C          11.2426    1.4072    0.0000 C.ar    1  UNL1       -0.0098
     29 C          10.3939    2.9171    0.0000 C.ar    1  UNL1       -0.0514
     30 C          12.1143    1.8972    0.0000 C.ar    1  UNL1        0.1588
     31 C          11.2657    3.4071    0.0000 C.ar    1  UNL1       -0.0159
     32 C          12.1259    2.8971    0.0000 C.ar    1  UNL1        0.1613
     33 C          13.0092    4.3870    0.0000 C.3     1  UNL1        0.0790
     34 H           5.6720   -3.3870    0.0000 H       1  UNL1        0.0648
     35 H           4.2690   -3.1970    0.0000 H       1  UNL1        0.0647
     36 H           6.5380   -2.2670    0.0000 H       1  UNL1        0.0683
     37 H           4.2690   -0.9570    0.0000 H       1  UNL1        0.0647
     38 H           6.0010   -0.9570    0.0000 H       1  UNL1        0.1084
     39 H           3.8015   -0.6020    0.0000 H       1  UNL1        0.0584
     40 H           3.0044   -0.6020    0.0000 H       1  UNL1        0.0584
     41 H           4.5981   -4.3870    0.0000 H       1  UNL1        0.2100
     42 H           3.4030   -3.6970    0.0000 H       1  UNL1        0.2100
     43 H           6.8671   -3.6970    0.0000 H       1  UNL1        0.2102
     44 H          10.0439    1.1110    0.0000 H       1  UNL1        0.0789
     45 H           9.7044   -0.1577    0.0000 H       1  UNL1        0.0385
     46 H          10.1108    0.5279    0.0000 H       1  UNL1        0.0385
     47 H           5.4277    0.1415    0.0000 H       1  UNL1        0.0691
     48 H           2.0000   -1.2670    0.0000 H       1  UNL1        0.2095
     49 H           6.9053    2.6120    0.0000 H       1  UNL1        0.0691
     50 H          11.2354    0.7872    0.0000 H       1  UNL1        0.0659
     51 H           9.8606    3.2333    0.0000 H       1  UNL1        0.0623
     52 H          11.2729    4.0270    0.0000 H       1  UNL1        0.0655
     53 H           5.1304    2.6221    0.0000 H       1  UNL1        0.2921
     54 H          13.5150    1.6909    0.0000 H       1  UNL1        0.2923
     55 H          13.6291    4.3798    0.0000 H       1  UNL1        0.0660
     56 H          13.0164    5.0069    0.0000 H       1  UNL1        0.0660
     57 H          12.3892    4.3941    0.0000 H       1  UNL1        0.0660
@<TRIPOS>BOND
     1     1    15    1
     2     1    16    1
     3    16     2    1
     4     2    18    1
     5    12     3    1
     6     3    41    1
     7    13     4    1
     8     4    42    1
     9    14     5    1
    10     5    43    1
    11     6    20    1
    12     6    22    1
    13     7    17    1
    14     7    48    1
    15     8    23    2
    16     9    27    1
    17     9    53    1
    18    10    32    1
    19    10    33    1
    20    11    30    1
    21    11    54    1
    22    12    13    1
    23    12    14    1
    24    12    34    1
    25    13    15    1
    26    13    35    1
    27    14    16    1
    28    14    36    1
    29    15    17    1
    30    15    37    1
    31    16    38    1
    32    17    39    1
    33    17    40    1
    34    18    19   ar
    35    18    24   ar
    36    19    22   ar
    37    19    23    1
    38    20    21    1
    39    20    25    1
    40    20    44    1
    41    21    23    1
    42    21    45    1
    43    21    46    1
    44    22    26   ar
    45    24    27   ar
    46    24    47    1
    47    25    28   ar
    48    25    29   ar
    49    26    27   ar
    50    26    49    1
    51    28    30   ar
    52    28    50    1
    53    29    31   ar
    54    29    51    1
    55    30    32   ar
    56    31    32   ar
    57    31    52    1
    58    33    55    1
    59    33    56    1
    60    33    57    1
