@<TRIPOS>MOLECULE
IMPHY014148
 125 128 0 0 0
SMALL
GASTEIGER

@<TRIPOS>ATOM
      1 O          11.5263   -2.7500    0.0000 O.3     1  UNL1       -0.3368
      2 O          13.2583   -2.7500    0.0000 O.3     1  UNL1       -0.3409
      3 O          11.5263    0.2500    0.0000 O.3     1  UNL1       -0.3373
      4 O           9.7942   -1.7500    0.0000 O.3     1  UNL1       -0.4528
      5 O          13.2583   -1.7500    0.0000 O.3     1  UNL1       -0.4536
      6 O          11.5263   -4.7500    0.0000 O.3     1  UNL1       -0.4525
      7 O          13.2583   -5.7500    0.0000 O.3     1  UNL1       -0.4537
      8 O          13.2583    0.2500    0.0000 O.3     1  UNL1       -0.3475
      9 O          14.9904   -4.7500    0.0000 O.3     1  UNL1       -0.4550
     10 O           9.7942    1.2500    0.0000 O.3     1  UNL1       -0.4621
     11 O           8.9282   -0.2500    0.0000 O.2     1  UNL1       -0.2456
     12 O          14.1244   -0.2500    0.0000 O.2     1  UNL1       -0.2512
     13 O          12.3923   -6.2500    0.0000 O.2     1  UNL1       -0.2512
     14 O          14.9904   -5.7500    0.0000 O.2     1  UNL1       -0.2512
     15 O          15.8564   -3.2500    0.0000 O.2     1  UNL1       -0.2512
     16 O           8.0622    1.2500    0.0000 O.2     1  UNL1       -0.2512
     17 O          15.8564    4.7500    0.0000 O.3     1  UNL1       -0.4223
     18 O          14.1244    5.7500    0.0000 O.3     1  UNL1       -0.4223
     19 O           3.7320   -1.2500    0.0000 O.3     1  UNL1       -0.4222
     20 O           3.7320   -3.2500    0.0000 O.3     1  UNL1       -0.4223
     21 O          16.7224    3.2500    0.0000 O.2     1  UNL1       -0.2507
     22 O          12.3923    5.7500    0.0000 O.2     1  UNL1       -0.2507
     23 O           4.5981    0.2500    0.0000 O.2     1  UNL1       -0.2507
     24 O           2.8660   -1.7500    0.0000 O.2     1  UNL1       -0.2507
     25 C          11.5263   -1.7500    0.0000 C.3     1  UNL1        0.1427
     26 C          10.6603   -1.2500    0.0000 C.3     1  UNL1        0.1623
     27 C          12.3923   -1.2500    0.0000 C.3     1  UNL1        0.1830
     28 C          12.3923   -3.2500    0.0000 C.3     1  UNL1        0.2008
     29 C          12.3923   -4.2500    0.0000 C.3     1  UNL1        0.1936
     30 C          10.6603   -0.2500    0.0000 C.3     1  UNL1        0.1351
     31 C          13.2583   -4.7500    0.0000 C.3     1  UNL1        0.1835
     32 C          14.1244   -4.2500    0.0000 C.3     1  UNL1        0.1691
     33 C          12.3923   -0.2500    0.0000 C.3     1  UNL1        0.1994
     34 C          14.1244   -3.2500    0.0000 C.3     1  UNL1        0.0995
     35 C           9.7942    0.2500    0.0000 C.3     1  UNL1        0.1222
     36 C          14.9904   -2.7500    0.0000 C.3     1  UNL1       -0.0350
     37 C          13.2583    1.2500    0.0000 C.3     1  UNL1        0.0548
     38 C           8.9282   -1.2500    0.0000 C.2     1  UNL1        0.3324
     39 C          14.1244   -1.2500    0.0000 C.2     1  UNL1        0.3044
     40 C          11.5263   -5.7500    0.0000 C.2     1  UNL1        0.3045
     41 C          14.1244   -6.2500    0.0000 C.2     1  UNL1        0.3044
     42 C          15.8564   -4.2500    0.0000 C.2     1  UNL1        0.3044
     43 C          14.1244    1.7500    0.0000 C.3     1  UNL1       -0.0039
     44 C          14.9904   -1.7500    0.0000 C.3     1  UNL1        0.0332
     45 C           8.9282    1.7500    0.0000 C.2     1  UNL1        0.3040
     46 C          10.6603   -6.2500    0.0000 C.3     1  UNL1        0.0332
     47 C           8.0622   -1.7500    0.0000 C.2     1  UNL1        0.0231
     48 C          14.1244   -7.2500    0.0000 C.3     1  UNL1        0.0332
     49 C          16.7224   -4.7500    0.0000 C.3     1  UNL1        0.0332
     50 C          14.1244    2.7500    0.0000 C.ar    1  UNL1       -0.0415
     51 C           8.9282    2.7500    0.0000 C.3     1  UNL1        0.0332
     52 C           7.1962   -1.2500    0.0000 C.2     1  UNL1       -0.0477
     53 C          14.9904    3.2500    0.0000 C.ar    1  UNL1       -0.0123
     54 C          13.2583    3.2500    0.0000 C.ar    1  UNL1       -0.0548
     55 C          14.9904    4.2500    0.0000 C.ar    1  UNL1        0.1740
     56 C          13.2583    4.2500    0.0000 C.ar    1  UNL1       -0.0153
     57 C           6.3301   -1.7500    0.0000 C.ar    1  UNL1       -0.0211
     58 C          14.1244    4.7500    0.0000 C.ar    1  UNL1        0.1737
     59 C           5.4641   -1.2500    0.0000 C.ar    1  UNL1       -0.0084
     60 C           6.3301   -2.7500    0.0000 C.ar    1  UNL1       -0.0509
     61 C           4.5981   -1.7500    0.0000 C.ar    1  UNL1        0.1743
     62 C           5.4641   -3.2500    0.0000 C.ar    1  UNL1       -0.0150
     63 C           4.5981   -2.7500    0.0000 C.ar    1  UNL1        0.1738
     64 C          16.7224    4.2500    0.0000 C.2     1  UNL1        0.3093
     65 C          13.2583    6.2500    0.0000 C.2     1  UNL1        0.3093
     66 C          17.5885    4.7500    0.0000 C.3     1  UNL1        0.0336
     67 C          13.2583    7.2500    0.0000 C.3     1  UNL1        0.0336
     68 C           3.7320   -0.2500    0.0000 C.2     1  UNL1        0.3093
     69 C           2.8660   -2.7500    0.0000 C.2     1  UNL1        0.3093
     70 C           2.8660    0.2500    0.0000 C.3     1  UNL1        0.0336
     71 C           2.0000   -3.2500    0.0000 C.3     1  UNL1        0.0336
     72 H          12.0632   -2.0600    0.0000 H       1  UNL1        0.0674
     73 H          10.6603   -1.8700    0.0000 H       1  UNL1        0.0789
     74 H          12.3923   -1.8700    0.0000 H       1  UNL1        0.0813
     75 H          11.8554   -3.5600    0.0000 H       1  UNL1        0.0950
     76 H          12.3923   -4.8700    0.0000 H       1  UNL1        0.0825
     77 H          10.6603    0.3700    0.0000 H       1  UNL1        0.0669
     78 H          12.7214   -5.0600    0.0000 H       1  UNL1        0.0812
     79 H          14.1244   -4.8700    0.0000 H       1  UNL1        0.0799
     80 H          12.9292   -0.5600    0.0000 H       1  UNL1        0.0949
     81 H          14.1244   -2.6300    0.0000 H       1  UNL1        0.0632
     82 H           9.1836    0.3577    0.0000 H       1  UNL1        0.0725
     83 H           9.5822   -0.3326    0.0000 H       1  UNL1        0.0725
     84 H          15.3004   -3.2869    0.0000 H       1  UNL1        0.0256
     85 H          15.5273   -2.4400    0.0000 H       1  UNL1        0.0256
     86 H          14.6804   -2.2131    0.0000 H       1  UNL1        0.0256
     87 H          13.0463    1.8326    0.0000 H       1  UNL1        0.0564
     88 H          12.6477    1.1423    0.0000 H       1  UNL1        0.0564
     89 H          14.3364    1.1674    0.0000 H       1  UNL1        0.0335
     90 H          14.7349    1.8577    0.0000 H       1  UNL1        0.0335
     91 H          14.6804   -2.2869    0.0000 H       1  UNL1        0.0342
     92 H          15.5273   -2.0600    0.0000 H       1  UNL1        0.0342
     93 H          15.3004   -1.2131    0.0000 H       1  UNL1        0.0342
     94 H          10.3503   -5.7131    0.0000 H       1  UNL1        0.0342
     95 H          10.1233   -6.5600    0.0000 H       1  UNL1        0.0342
     96 H          10.9703   -6.7869    0.0000 H       1  UNL1        0.0342
     97 H           8.0622   -2.3700    0.0000 H       1  UNL1        0.0689
     98 H          13.5044   -7.2500    0.0000 H       1  UNL1        0.0342
     99 H          14.1244   -7.8700    0.0000 H       1  UNL1        0.0342
    100 H          14.7444   -7.2500    0.0000 H       1  UNL1        0.0342
    101 H          16.4124   -5.2869    0.0000 H       1  UNL1        0.0342
    102 H          17.2594   -5.0600    0.0000 H       1  UNL1        0.0342
    103 H          17.0324   -4.2131    0.0000 H       1  UNL1        0.0342
    104 H           9.5482    2.7500    0.0000 H       1  UNL1        0.0342
    105 H           8.9282    3.3700    0.0000 H       1  UNL1        0.0342
    106 H           8.3082    2.7500    0.0000 H       1  UNL1        0.0342
    107 H           7.1962   -0.6300    0.0000 H       1  UNL1        0.0626
    108 H          15.5273    2.9400    0.0000 H       1  UNL1        0.0658
    109 H          12.7214    2.9400    0.0000 H       1  UNL1        0.0621
    110 H          12.7214    4.5600    0.0000 H       1  UNL1        0.0656
    111 H           5.4641   -0.6300    0.0000 H       1  UNL1        0.0661
    112 H           6.8671   -3.0600    0.0000 H       1  UNL1        0.0625
    113 H           5.4641   -3.8700    0.0000 H       1  UNL1        0.0656
    114 H          17.8985    4.2131    0.0000 H       1  UNL1        0.0342
    115 H          18.1254    5.0600    0.0000 H       1  UNL1        0.0342
    116 H          17.2785    5.2869    0.0000 H       1  UNL1        0.0342
    117 H          13.8783    7.2500    0.0000 H       1  UNL1        0.0342
    118 H          13.2583    7.8700    0.0000 H       1  UNL1        0.0342
    119 H          12.6383    7.2500    0.0000 H       1  UNL1        0.0342
    120 H           3.1760    0.7869    0.0000 H       1  UNL1        0.0342
    121 H           2.3291    0.5600    0.0000 H       1  UNL1        0.0342
    122 H           2.5560   -0.2869    0.0000 H       1  UNL1        0.0342
    123 H           1.6900   -2.7131    0.0000 H       1  UNL1        0.0342
    124 H           1.4631   -3.5600    0.0000 H       1  UNL1        0.0342
    125 H           2.3100   -3.7869    0.0000 H       1  UNL1        0.0342
@<TRIPOS>BOND
     1    25     1    1
     2    28     1    1
     3     2    28    1
     4     2    34    1
     5     3    30    1
     6     3    33    1
     7    26     4    1
     8     4    38    1
     9    27     5    1
    10     5    39    1
    11    29     6    1
    12     6    40    1
    13    31     7    1
    14     7    41    1
    15    33     8    1
    16     8    37    1
    17    32     9    1
    18     9    42    1
    19    10    35    1
    20    10    45    1
    21    11    38    2
    22    12    39    2
    23    13    40    2
    24    14    41    2
    25    15    42    2
    26    16    45    2
    27    17    55    1
    28    17    64    1
    29    18    58    1
    30    18    65    1
    31    19    61    1
    32    19    68    1
    33    20    63    1
    34    20    69    1
    35    21    64    2
    36    22    65    2
    37    23    68    2
    38    24    69    2
    39    25    26    1
    40    25    27    1
    41    25    72    1
    42    26    30    1
    43    26    73    1
    44    27    33    1
    45    27    74    1
    46    28    29    1
    47    28    75    1
    48    29    31    1
    49    29    76    1
    50    30    35    1
    51    30    77    1
    52    31    32    1
    53    31    78    1
    54    32    34    1
    55    32    79    1
    56    33    80    1
    57    34    36    1
    58    34    81    1
    59    35    82    1
    60    35    83    1
    61    36    84    1
    62    36    85    1
    63    36    86    1
    64    37    43    1
    65    37    87    1
    66    37    88    1
    67    38    47    1
    68    39    44    1
    69    40    46    1
    70    41    48    1
    71    42    49    1
    72    43    50    1
    73    43    89    1
    74    43    90    1
    75    44    91    1
    76    44    92    1
    77    44    93    1
    78    45    51    1
    79    46    94    1
    80    46    95    1
    81    46    96    1
    82    47    52    2
    83    47    97    1
    84    48    98    1
    85    48    99    1
    86    48   100    1
    87    49   101    1
    88    49   102    1
    89    49   103    1
    90    50    53   ar
    91    50    54   ar
    92    51   104    1
    93    51   105    1
    94    51   106    1
    95    52    57    1
    96    52   107    1
    97    53    55   ar
    98    53   108    1
    99    54    56   ar
   100    54   109    1
   101    55    58   ar
   102    56    58   ar
   103    56   110    1
   104    57    59   ar
   105    57    60   ar
   106    59    61   ar
   107    59   111    1
   108    60    62   ar
   109    60   112    1
   110    61    63   ar
   111    62    63   ar
   112    62   113    1
   113    64    66    1
   114    65    67    1
   115    66   114    1
   116    66   115    1
   117    66   116    1
   118    67   117    1
   119    67   118    1
   120    67   119    1
   121    68    70    1
   122    69    71    1
   123    70   120    1
   124    70   121    1
   125    70   122    1
   126    71   123    1
   127    71   124    1
   128    71   125    1
