@<TRIPOS>MOLECULE
IMPHY013514
 107 109 0 0 0
SMALL
GASTEIGER

@<TRIPOS>ATOM
      1 O           5.0792    4.3137    0.0000 O.3     1  UNL1       -0.4562
      2 O           5.8703   17.2853    0.0000 O.3     2  UNL2       -0.4562
      3 O           6.4804    3.2957    0.0000 O.2     1  UNL1       -0.2505
      4 O           7.2716   16.2672    0.0000 O.2     2  UNL2       -0.2505
      5 O           1.6111   13.7470    0.0000 O.3     2  UNL2       -0.4647
      6 O           1.7922   15.4696    0.0000 O.2     2  UNL2       -0.2453
      7 O           7.9270    6.3828    0.0000 O.2     1  UNL1       -0.2922
      8 O           8.7182   19.3544    0.0000 O.2     2  UNL2       -0.2922
      9 C           4.7936    1.5966    0.0000 C.3     1  UNL1       -0.0144
     10 C           5.5848   14.5682    0.0000 C.3     2  UNL2       -0.0144
     11 C           3.9846    2.1844    0.0000 C.3     1  UNL1       -0.0033
     12 C           4.8981    2.5912    0.0000 C.3     1  UNL1        0.0688
     13 C           4.7757   15.1560    0.0000 C.3     2  UNL2       -0.0028
     14 C           5.6893   15.5628    0.0000 C.3     2  UNL2        0.0688
     15 C           4.2058    0.7876    0.0000 C.3     1  UNL1       -0.0585
     16 C           5.7881    1.4921    0.0000 C.3     1  UNL1       -0.0585
     17 C           4.9970   13.7592    0.0000 C.3     2  UNL2       -0.0585
     18 C           6.5793   14.4637    0.0000 C.3     2  UNL2       -0.0585
     19 C           2.9901    2.2890    0.0000 C.2     1  UNL1       -0.0809
     20 C           3.7812   15.2606    0.0000 C.2     2  UNL2       -0.0699
     21 C           5.4859    3.4002    0.0000 C.2     1  UNL1        0.3119
     22 C           6.2771   16.3718    0.0000 C.2     2  UNL2        0.3119
     23 C           2.4023    1.4799    0.0000 C.2     1  UNL1       -0.0793
     24 C           3.1934   14.4515    0.0000 C.2     2  UNL2        0.0299
     25 C           5.6670    5.1228    0.0000 C.3     1  UNL1        0.1315
     26 C           6.4581   18.0943    0.0000 C.3     2  UNL2        0.1315
     27 C           1.4078    1.5845    0.0000 C.3     1  UNL1       -0.0440
     28 C           2.8090    0.5664    0.0000 C.3     1  UNL1       -0.0440
     29 C           3.6002   13.5380    0.0000 C.3     2  UNL2       -0.0332
     30 C           2.1989   14.5561    0.0000 C.2     2  UNL2        0.3343
     31 C           6.6670    5.1228    0.0000 C.3     1  UNL1        0.0512
     32 C           7.4581   18.0943    0.0000 C.3     2  UNL2        0.0512
     33 C           5.3580    6.0738    0.0000 C.2     1  UNL1       -0.0255
     34 C           6.1491   19.0454    0.0000 C.2     2  UNL2       -0.0255
     35 C           6.1670    6.6616    0.0000 C.2     1  UNL1        0.0013
     36 C           6.9581   19.6332    0.0000 C.2     2  UNL2        0.0013
     37 C           6.9760    6.0738    0.0000 C.2     1  UNL1        0.1634
     38 C           7.7671   19.0454    0.0000 C.2     2  UNL2        0.1634
     39 C           4.4069    6.3828    0.0000 C.3     1  UNL1       -0.0397
     40 C           5.1980   19.3544    0.0000 C.3     2  UNL2       -0.0397
     41 C           6.1670    7.6616    0.0000 C.3     1  UNL1       -0.0058
     42 C           6.9581   20.6332    0.0000 C.3     2  UNL2       -0.0058
     43 C           0.6166   13.8516    0.0000 C.3     2  UNL2        0.0820
     44 C           7.0330    8.1616    0.0000 C.2     1  UNL1       -0.0796
     45 C           7.8241   21.1332    0.0000 C.2     2  UNL2       -0.0796
     46 C           7.0330    9.1616    0.0000 C.2     1  UNL1       -0.0659
     47 C           7.8241   22.1332    0.0000 C.2     2  UNL2       -0.0659
     48 C           7.8990    9.6616    0.0000 C.2     1  UNL1       -0.0692
     49 C           8.6902   22.6332    0.0000 C.2     2  UNL2       -0.0692
     50 C           7.8990   10.6616    0.0000 C.2     1  UNL1       -0.0987
     51 C           8.6902   23.6332    0.0000 C.2     2  UNL2       -0.0987
     52 H           3.8876    2.7968    0.0000 H       1  UNL1        0.0356
     53 H           4.5080    3.0730    0.0000 H       1  UNL1        0.0425
     54 H           4.6788   15.7684    0.0000 H       2  UNL2        0.0357
     55 H           6.2681   15.3406    0.0000 H       2  UNL2        0.0425
     56 H           3.7042    1.1521    0.0000 H       1  UNL1        0.0235
     57 H           3.8414    0.2860    0.0000 H       1  UNL1        0.0235
     58 H           4.7074    0.4232    0.0000 H       1  UNL1        0.0235
     59 H           5.7233    0.8755    0.0000 H       1  UNL1        0.0235
     60 H           6.4047    1.4273    0.0000 H       1  UNL1        0.0235
     61 H           5.8529    2.1087    0.0000 H       1  UNL1        0.0235
     62 H           4.4954   14.1236    0.0000 H       2  UNL2        0.0235
     63 H           4.6325   13.2576    0.0000 H       2  UNL2        0.0235
     64 H           5.4986   13.3948    0.0000 H       2  UNL2        0.0235
     65 H           6.5145   13.8471    0.0000 H       2  UNL2        0.0235
     66 H           7.1959   14.3989    0.0000 H       2  UNL2        0.0235
     67 H           6.6441   15.0803    0.0000 H       2  UNL2        0.0235
     68 H           2.7379    2.8554    0.0000 H       1  UNL1        0.0575
     69 H           3.5290   15.8269    0.0000 H       2  UNL2        0.0580
     70 H           5.0546    5.2197    0.0000 H       1  UNL1        0.0786
     71 H           6.7396   17.5419    0.0000 H       2  UNL2        0.0786
     72 H           1.4726    2.2011    0.0000 H       1  UNL1        0.0274
     73 H           0.7912    1.6493    0.0000 H       1  UNL1        0.0274
     74 H           1.3430    0.9679    0.0000 H       1  UNL1        0.0274
     75 H           2.2426    0.3142    0.0000 H       1  UNL1        0.0274
     76 H           3.0612    0.0000    0.0000 H       1  UNL1        0.0274
     77 H           3.3754    0.8186    0.0000 H       1  UNL1        0.0274
     78 H           3.0338   13.2858    0.0000 H       2  UNL2        0.0280
     79 H           3.8524   12.9716    0.0000 H       2  UNL2        0.0280
     80 H           4.1666   13.7902    0.0000 H       2  UNL2        0.0280
     81 H           6.6022    4.5061    0.0000 H       1  UNL1        0.0385
     82 H           7.2734    4.9938    0.0000 H       1  UNL1        0.0385
     83 H           7.3933   17.4777    0.0000 H       2  UNL2        0.0385
     84 H           8.0646   17.9654    0.0000 H       2  UNL2        0.0385
     85 H           4.5985    6.9725    0.0000 H       1  UNL1        0.0276
     86 H           3.8172    6.5744    0.0000 H       1  UNL1        0.0276
     87 H           4.2153    5.7932    0.0000 H       1  UNL1        0.0276
     88 H           5.3896   19.9441    0.0000 H       2  UNL2        0.0276
     89 H           4.6084   19.5460    0.0000 H       2  UNL2        0.0276
     90 H           5.0065   18.7648    0.0000 H       2  UNL2        0.0276
     91 H           5.9549    8.2442    0.0000 H       1  UNL1        0.0357
     92 H           5.5564    7.5539    0.0000 H       1  UNL1        0.0357
     93 H           6.7461   21.2158    0.0000 H       2  UNL2        0.0357
     94 H           6.3475   20.5255    0.0000 H       2  UNL2        0.0357
     95 H           0.6814   14.4682    0.0000 H       2  UNL2        0.0661
     96 H           0.0000   13.9164    0.0000 H       2  UNL2        0.0661
     97 H           0.5518   13.2350    0.0000 H       2  UNL2        0.0661
     98 H           7.5699    7.8516    0.0000 H       1  UNL1        0.0575
     99 H           8.3611   20.8232    0.0000 H       2  UNL2        0.0575
    100 H           6.4960    9.4716    0.0000 H       1  UNL1        0.0614
    101 H           7.2872   22.4432    0.0000 H       2  UNL2        0.0614
    102 H           8.4360    9.3516    0.0000 H       1  UNL1        0.0612
    103 H           9.2271   22.3232    0.0000 H       2  UNL2        0.0612
    104 H           8.4360   10.9716    0.0000 H       1  UNL1        0.0535
    105 H           7.3621   10.9716    0.0000 H       1  UNL1        0.0535
    106 H           9.2271   23.9432    0.0000 H       2  UNL2        0.0535
    107 H           8.1532   23.9432    0.0000 H       2  UNL2        0.0535
@<TRIPOS>BOND
     1     1    21    1
     2    25     1    1
     3     2    22    1
     4     2    26    1
     5     3    21    2
     6     4    22    2
     7     5    30    1
     8     5    43    1
     9     6    30    2
    10     7    37    2
    11     8    38    2
    12     9    11    1
    13     9    12    1
    14     9    15    1
    15     9    16    1
    16    10    13    1
    17    10    14    1
    18    10    17    1
    19    10    18    1
    20    11    12    1
    21    11    19    1
    22    11    52    1
    23    12    21    1
    24    12    53    1
    25    13    14    1
    26    13    20    1
    27    13    54    1
    28    14    22    1
    29    14    55    1
    30    15    56    1
    31    15    57    1
    32    15    58    1
    33    16    59    1
    34    16    60    1
    35    16    61    1
    36    17    62    1
    37    17    63    1
    38    17    64    1
    39    18    65    1
    40    18    66    1
    41    18    67    1
    42    19    23    2
    43    19    68    1
    44    20    24    2
    45    20    69    1
    46    23    27    1
    47    23    28    1
    48    24    29    1
    49    24    30    1
    50    25    31    1
    51    25    33    1
    52    25    70    1
    53    26    32    1
    54    26    34    1
    55    26    71    1
    56    27    72    1
    57    27    73    1
    58    27    74    1
    59    28    75    1
    60    28    76    1
    61    28    77    1
    62    29    78    1
    63    29    79    1
    64    29    80    1
    65    31    37    1
    66    31    81    1
    67    31    82    1
    68    32    38    1
    69    32    83    1
    70    32    84    1
    71    33    35    2
    72    33    39    1
    73    34    36    2
    74    34    40    1
    75    35    37    1
    76    35    41    1
    77    36    38    1
    78    36    42    1
    79    39    85    1
    80    39    86    1
    81    39    87    1
    82    40    88    1
    83    40    89    1
    84    40    90    1
    85    41    44    1
    86    41    91    1
    87    41    92    1
    88    42    45    1
    89    42    93    1
    90    42    94    1
    91    43    95    1
    92    43    96    1
    93    43    97    1
    94    44    46    2
    95    44    98    1
    96    45    47    2
    97    45    99    1
    98    46    48    1
    99    46   100    1
   100    47    49    1
   101    47   101    1
   102    48    50    2
   103    48   102    1
   104    49    51    2
   105    49   103    1
   106    50   104    1
   107    50   105    1
   108    51   106    1
   109    51   107    1
