@<TRIPOS>MOLECULE
IMPHY005988
 82 85 0 0 0
SMALL
GASTEIGER

@<TRIPOS>ATOM
      1 O          10.4586   -0.7906    0.0000 O.3     1  UNL1       -0.3914
      2 O          10.1362    0.6540    0.0000 O.3     1  UNL1       -0.3882
      3 O           5.3307    0.2094    0.0000 O.2     1  UNL1       -0.2968
      4 O           2.5357   -3.3429    0.0000 O.3     1  UNL1       -0.3834
      5 O           2.5519   -1.2513    0.0000 O.2     1  UNL1       -0.2946
      6 O          12.7425    3.4844    0.0000 O.3     1  UNL1       -0.3851
      7 C           7.9288   -1.2906    0.0000 C.3     1  UNL1       -0.0195
      8 C           7.9288   -0.2906    0.0000 C.3     1  UNL1       -0.0119
      9 C           7.0628   -1.7906    0.0000 C.3     1  UNL1       -0.0189
     10 C           8.8750    0.0142    0.0000 C.3     1  UNL1        0.0202
     11 C           6.1968   -1.2906    0.0000 C.3     1  UNL1        0.0367
     12 C           8.8750   -1.5953    0.0000 C.3     1  UNL1       -0.0203
     13 C           9.4586   -0.7906    0.0000 C.3     1  UNL1        0.0617
     14 C           7.0628    0.2094    0.0000 C.3     1  UNL1        0.0127
     15 C           5.2868   -1.7974    0.0000 C.3     1  UNL1       -0.0002
     16 C           6.1968   -0.2906    0.0000 C.2     1  UNL1        0.1406
     17 C           7.0789   -2.8321    0.0000 C.3     1  UNL1       -0.0302
     18 C           7.9288   -2.2906    0.0000 C.3     1  UNL1       -0.0587
     19 C           9.1857    0.9647    0.0000 C.3     1  UNL1        0.0724
     20 C           7.9288    0.7094    0.0000 C.3     1  UNL1       -0.0582
     21 C           5.2787   -2.8390    0.0000 C.2     1  UNL1       -0.0605
     22 C           5.3307   -0.7906    0.0000 C.3     1  UNL1       -0.0520
     23 C           6.1808   -3.3598    0.0000 C.2     1  UNL1       -0.0835
     24 C           4.3599   -1.2333    0.0000 C.3     1  UNL1        0.0159
     25 C           4.3433   -3.3887    0.0000 C.3     1  UNL1        0.0192
     26 C           9.4964    1.9152    0.0000 C.3     1  UNL1       -0.0056
     27 C           8.2352    1.2754    0.0000 C.3     1  UNL1       -0.0354
     28 C           3.4037   -2.8462    0.0000 C.3     1  UNL1        0.1217
     29 C           3.4120   -1.7613    0.0000 C.2     1  UNL1        0.1630
     30 C           3.8467   -4.2567    0.0000 C.3     1  UNL1       -0.0533
     31 C           4.8466   -4.2528    0.0000 C.3     1  UNL1       -0.0533
     32 C          10.4749    2.1214    0.0000 C.2     1  UNL1       -0.0826
     33 C          10.7855    3.0720    0.0000 C.2     1  UNL1       -0.0572
     34 C          11.7640    3.2782    0.0000 C.3     1  UNL1        0.0786
     35 C          11.5578    4.2567    0.0000 C.3     1  UNL1       -0.0327
     36 C          11.9703    2.2997    0.0000 C.3     1  UNL1       -0.0327
     37 H           7.6021   -2.0964    0.0000 H       1  UNL1        0.0319
     38 H           9.4875    0.1104    0.0000 H       1  UNL1        0.0359
     39 H           8.6240   -2.1622    0.0000 H       1  UNL1        0.0296
     40 H           9.4124   -1.9045    0.0000 H       1  UNL1        0.0296
     41 H           9.7404   -1.3429    0.0000 H       1  UNL1        0.0597
     42 H           7.4613    0.6844    0.0000 H       1  UNL1        0.0347
     43 H           6.6643    0.6844    0.0000 H       1  UNL1        0.0347
     44 H           5.8201   -2.1136    0.0000 H       1  UNL1        0.0359
     45 H           7.2969   -3.4125    0.0000 H       1  UNL1        0.0311
     46 H           7.6880   -2.7166    0.0000 H       1  UNL1        0.0311
     47 H           7.3088   -2.2906    0.0000 H       1  UNL1        0.0235
     48 H           7.9288   -2.9106    0.0000 H       1  UNL1        0.0235
     49 H           8.5488   -2.2906    0.0000 H       1  UNL1        0.0235
     50 H           8.5488    0.7094    0.0000 H       1  UNL1        0.0235
     51 H           7.9288    1.3294    0.0000 H       1  UNL1        0.0235
     52 H           7.3088    0.7094    0.0000 H       1  UNL1        0.0235
     53 H           5.6407   -0.2536    0.0000 H       1  UNL1        0.0239
     54 H           4.7938   -0.4806    0.0000 H       1  UNL1        0.0239
     55 H           5.0207   -1.3275    0.0000 H       1  UNL1        0.0239
     56 H           6.1832   -3.9798    0.0000 H       1  UNL1        0.0572
     57 H           4.7681   -0.7667    0.0000 H       1  UNL1        0.0349
     58 H           3.9700   -0.7513    0.0000 H       1  UNL1        0.0349
     59 H           9.4758    2.5349    0.0000 H       1  UNL1        0.0335
     60 H           8.8826    2.0026    0.0000 H       1  UNL1        0.0335
     61 H           8.4278    1.8647    0.0000 H       1  UNL1        0.0257
     62 H           7.6459    1.4680    0.0000 H       1  UNL1        0.0257
     63 H           8.0426    0.6860    0.0000 H       1  UNL1        0.0257
     64 H          10.7687   -1.3275    0.0000 H       1  UNL1        0.2098
     65 H           3.4025   -3.4662    0.0000 H       1  UNL1        0.0681
     66 H          10.5977    1.0681    0.0000 H       1  UNL1        0.2102
     67 H           4.3109   -4.5649    0.0000 H       1  UNL1        0.0239
     68 H           5.1587   -4.7886    0.0000 H       1  UNL1        0.0239
     69 H           5.3824   -3.9408    0.0000 H       1  UNL1        0.0239
     70 H           3.3085   -3.9488    0.0000 H       1  UNL1        0.0239
     71 H           3.5387   -4.7948    0.0000 H       1  UNL1        0.0239
     72 H           4.3848   -4.5646    0.0000 H       1  UNL1        0.0239
     73 H          10.8889    1.6600    0.0000 H       1  UNL1        0.0571
     74 H           2.0000   -3.0308    0.0000 H       1  UNL1        0.2104
     75 H          10.3715    3.5334    0.0000 H       1  UNL1        0.0597
     76 H          12.1645    4.3845    0.0000 H       1  UNL1        0.0260
     77 H          11.4300    4.8633    0.0000 H       1  UNL1        0.0260
     78 H          10.9511    4.1288    0.0000 H       1  UNL1        0.0260
     79 H          11.3636    2.1718    0.0000 H       1  UNL1        0.0260
     80 H          12.0981    1.6930    0.0000 H       1  UNL1        0.0260
     81 H          12.5769    2.4275    0.0000 H       1  UNL1        0.0260
     82 H          12.9352    4.0737    0.0000 H       1  UNL1        0.2106
@<TRIPOS>BOND
     1     1    13    1
     2     1    64    1
     3     2    19    1
     4     2    66    1
     5     3    16    2
     6     4    28    1
     7     4    74    1
     8     5    29    2
     9     6    34    1
    10     6    82    1
    11     7     8    1
    12     7     9    1
    13     7    12    1
    14     7    18    1
    15     8    10    1
    16     8    14    1
    17     8    20    1
    18     9    11    1
    19     9    17    1
    20     9    37    1
    21    10    13    1
    22    10    19    1
    23    10    38    1
    24    11    15    1
    25    11    16    1
    26    11    22    1
    27    12    13    1
    28    12    39    1
    29    12    40    1
    30    13    41    1
    31    14    16    1
    32    14    42    1
    33    14    43    1
    34    15    21    1
    35    15    24    1
    36    15    44    1
    37    17    23    1
    38    17    45    1
    39    17    46    1
    40    18    47    1
    41    18    48    1
    42    18    49    1
    43    19    26    1
    44    19    27    1
    45    20    50    1
    46    20    51    1
    47    20    52    1
    48    21    23    2
    49    21    25    1
    50    22    53    1
    51    22    54    1
    52    22    55    1
    53    23    56    1
    54    24    29    1
    55    24    57    1
    56    24    58    1
    57    25    28    1
    58    25    30    1
    59    25    31    1
    60    26    32    1
    61    26    59    1
    62    26    60    1
    63    27    61    1
    64    27    62    1
    65    27    63    1
    66    28    29    1
    67    28    65    1
    68    30    70    1
    69    30    71    1
    70    30    72    1
    71    31    67    1
    72    31    68    1
    73    31    69    1
    74    32    33    2
    75    32    73    1
    76    33    34    1
    77    33    75    1
    78    34    35    1
    79    34    36    1
    80    35    76    1
    81    35    77    1
    82    35    78    1
    83    36    79    1
    84    36    80    1
    85    36    81    1
