@<TRIPOS>MOLECULE
IMPHY016714
 42 43 0 0 0
SMALL
GASTEIGER

@<TRIPOS>ATOM
      1 O           4.5981   -1.3623    0.0000 O.3     1  UNL1       -0.3906
      2 C           5.4641    0.1377    0.0000 C.3     1  UNL1        0.0177
      3 C           5.4641    1.1377    0.0000 C.3     1  UNL1       -0.0296
      4 C           4.5981   -0.3623    0.0000 C.3     1  UNL1        0.0675
      5 C           3.7320    0.1377    0.0000 C.3     1  UNL1       -0.0118
      6 C           4.5981    1.6377    0.0000 C.3     1  UNL1       -0.0490
      7 C           3.7320    1.1377    0.0000 C.3     1  UNL1       -0.0473
      8 C           6.3580    1.6723    0.0000 C.3     1  UNL1       -0.0491
      9 C           6.3580   -0.3970    0.0000 C.2     1  UNL1       -0.0680
     10 C           2.8660   -0.3623    0.0000 C.3     1  UNL1       -0.0415
     11 C           5.4641   -0.8623    0.0000 C.3     1  UNL1       -0.0532
     12 C           7.2641    1.1585    0.0000 C.3     1  UNL1       -0.0491
     13 C           7.2641    0.1169    0.0000 C.3     1  UNL1       -0.0314
     14 C           2.0000    0.1377    0.0000 C.3     1  UNL1       -0.0623
     15 C           2.8660   -1.3623    0.0000 C.3     1  UNL1       -0.0623
     16 C           6.3465   -1.3969    0.0000 C.2     1  UNL1       -0.0988
     17 H           5.4576    1.9876    0.0000 H       1  UNL1        0.0310
     18 H           4.0611   -0.6723    0.0000 H       1  UNL1        0.0605
     19 H           3.7320   -0.4823    0.0000 H       1  UNL1        0.0328
     20 H           4.9966    2.1126    0.0000 H       1  UNL1        0.0268
     21 H           4.1996    2.1126    0.0000 H       1  UNL1        0.0268
     22 H           3.5200    1.7203    0.0000 H       1  UNL1        0.0269
     23 H           3.1215    1.0300    0.0000 H       1  UNL1        0.0269
     24 H           6.7517    2.1514    0.0000 H       1  UNL1        0.0268
     25 H           5.9534    2.1421    0.0000 H       1  UNL1        0.0268
     26 H           2.8660    0.2577    0.0000 H       1  UNL1        0.0299
     27 H           4.8441   -0.8623    0.0000 H       1  UNL1        0.0239
     28 H           5.4641   -1.4823    0.0000 H       1  UNL1        0.0239
     29 H           6.0841   -0.8623    0.0000 H       1  UNL1        0.0239
     30 H           7.8750    1.0524    0.0000 H       1  UNL1        0.0268
     31 H           7.4732    1.7422    0.0000 H       1  UNL1        0.0268
     32 H           7.4732   -0.4668    0.0000 H       1  UNL1        0.0310
     33 H           7.8750    0.2229    0.0000 H       1  UNL1        0.0310
     34 H           4.0611   -1.6723    0.0000 H       1  UNL1        0.2098
     35 H           2.3100    0.6746    0.0000 H       1  UNL1        0.0232
     36 H           1.4631    0.4477    0.0000 H       1  UNL1        0.0232
     37 H           1.6900   -0.3993    0.0000 H       1  UNL1        0.0232
     38 H           2.2460   -1.3623    0.0000 H       1  UNL1        0.0232
     39 H           2.8660   -1.9823    0.0000 H       1  UNL1        0.0232
     40 H           3.4860   -1.3623    0.0000 H       1  UNL1        0.0232
     41 H           5.8060   -1.7007    0.0000 H       1  UNL1        0.0535
     42 H           6.8798   -1.7131    0.0000 H       1  UNL1        0.0535
@<TRIPOS>BOND
     1     4     1    1
     2     1    34    1
     3     2     3    1
     4     2     4    1
     5     2     9    1
     6     2    11    1
     7     3     6    1
     8     3     8    1
     9     3    17    1
    10     4     5    1
    11     4    18    1
    12     5     7    1
    13     5    10    1
    14     5    19    1
    15     6     7    1
    16     6    20    1
    17     6    21    1
    18     7    22    1
    19     7    23    1
    20     8    12    1
    21     8    24    1
    22     8    25    1
    23     9    13    1
    24     9    16    2
    25    10    14    1
    26    10    15    1
    27    10    26    1
    28    11    27    1
    29    11    28    1
    30    11    29    1
    31    12    13    1
    32    12    30    1
    33    12    31    1
    34    13    32    1
    35    13    33    1
    36    14    35    1
    37    14    36    1
    38    14    37    1
    39    15    38    1
    40    15    39    1
    41    15    40    1
    42    16    41    1
    43    16    42    1
