@<TRIPOS>MOLECULE
IMPHY013257
 55 57 0 0 0
SMALL
GASTEIGER

@<TRIPOS>ATOM
      1 O           6.3981   -2.0798    0.0000 O.2     1  UNL1       -0.2919
      2 O           3.7782    1.4517    0.0000 O.3     1  UNL1       -0.5031
      3 O           7.3022   -0.5829    0.0000 O.3     1  UNL1       -0.5057
      4 O           5.5442    2.4895    0.0000 O.3     1  UNL1       -0.4910
      5 C           3.8000   -1.5798    0.0000 C.3     1  UNL1       -0.0194
      6 C           3.8000   -0.5798    0.0000 C.3     1  UNL1        0.0010
      7 C           2.9061   -2.1144    0.0000 C.3     1  UNL1       -0.0309
      8 C           2.9061   -0.0451    0.0000 C.3     1  UNL1       -0.0432
      9 C           2.0000   -1.6006    0.0000 C.3     1  UNL1       -0.0476
     10 C           2.0000   -0.5589    0.0000 C.3     1  UNL1       -0.0518
     11 C           4.6660   -2.0798    0.0000 C.3     1  UNL1        0.0147
     12 C           4.6660   -0.0798    0.0000 C.ar    1  UNL1        0.0179
     13 C           3.8000    0.4202    0.0000 C.3     1  UNL1       -0.0551
     14 C           2.4161   -2.9862    0.0000 C.3     1  UNL1       -0.0595
     15 C           3.4160   -2.9746    0.0000 C.3     1  UNL1       -0.0595
     16 C           5.5321   -0.5798    0.0000 C.ar    1  UNL1        0.0664
     17 C           5.5321   -1.5798    0.0000 C.2     1  UNL1        0.1674
     18 C           4.6500    0.9618    0.0000 C.ar    1  UNL1        0.1634
     19 C           6.4421   -0.0729    0.0000 C.ar    1  UNL1        0.1347
     20 C           5.5480    1.4895    0.0000 C.ar    1  UNL1        0.1685
     21 C           6.4501    0.9687    0.0000 C.ar    1  UNL1        0.0425
     22 C           7.3180    1.4654    0.0000 C.3     1  UNL1       -0.0144
     23 C           7.3219    2.4654    0.0000 C.3     1  UNL1       -0.0584
     24 C           8.1821    0.9620    0.0000 C.3     1  UNL1       -0.0584
     25 C           4.6762    2.9862    0.0000 C.3     1  UNL1        0.0790
     26 H           3.8066   -2.4297    0.0000 H       1  UNL1        0.0319
     27 H           3.3107    0.4247    0.0000 H       1  UNL1        0.0274
     28 H           2.5124    0.4339    0.0000 H       1  UNL1        0.0274
     29 H           1.3891   -1.4945    0.0000 H       1  UNL1        0.0271
     30 H           1.7909   -2.1843    0.0000 H       1  UNL1        0.0271
     31 H           1.7909    0.0248    0.0000 H       1  UNL1        0.0266
     32 H           1.3891   -0.6650    0.0000 H       1  UNL1        0.0266
     33 H           4.2675   -2.5547    0.0000 H       1  UNL1        0.0348
     34 H           5.0646   -2.5547    0.0000 H       1  UNL1        0.0348
     35 H           4.4200    0.4202    0.0000 H       1  UNL1        0.0238
     36 H           3.8000    1.0402    0.0000 H       1  UNL1        0.0238
     37 H           3.1800    0.4202    0.0000 H       1  UNL1        0.0238
     38 H           1.8756   -2.6824    0.0000 H       1  UNL1        0.0235
     39 H           2.1123   -3.5266    0.0000 H       1  UNL1        0.0235
     40 H           2.9566   -3.2899    0.0000 H       1  UNL1        0.0235
     41 H           2.8827   -3.2908    0.0000 H       1  UNL1        0.0235
     42 H           3.7322   -3.5079    0.0000 H       1  UNL1        0.0235
     43 H           3.9494   -2.6584    0.0000 H       1  UNL1        0.0235
     44 H           7.8562    1.7733    0.0000 H       1  UNL1        0.0346
     45 H           3.7711    2.0717    0.0000 H       1  UNL1        0.2923
     46 H           7.8427   -0.2791    0.0000 H       1  UNL1        0.2922
     47 H           7.9419    2.4630    0.0000 H       1  UNL1        0.0235
     48 H           7.3243    3.0853    0.0000 H       1  UNL1        0.0235
     49 H           6.7019    2.4677    0.0000 H       1  UNL1        0.0235
     50 H           7.8701    0.4263    0.0000 H       1  UNL1        0.0235
     51 H           8.7179    0.6500    0.0000 H       1  UNL1        0.0235
     52 H           8.4942    1.4978    0.0000 H       1  UNL1        0.0235
     53 H           4.9841    3.5243    0.0000 H       1  UNL1        0.0660
     54 H           4.1381    3.2941    0.0000 H       1  UNL1        0.0660
     55 H           4.3683    2.4480    0.0000 H       1  UNL1        0.0660
@<TRIPOS>BOND
     1     1    17    2
     2     2    18    1
     3     2    45    1
     4     3    19    1
     5     3    46    1
     6     4    20    1
     7     4    25    1
     8     5     6    1
     9     5     7    1
    10     5    11    1
    11     5    26    1
    12     6     8    1
    13     6    12    1
    14     6    13    1
    15     7     9    1
    16     7    14    1
    17     7    15    1
    18     8    10    1
    19     8    27    1
    20     8    28    1
    21     9    10    1
    22     9    29    1
    23     9    30    1
    24    10    31    1
    25    10    32    1
    26    11    17    1
    27    11    33    1
    28    11    34    1
    29    12    16   ar
    30    12    18   ar
    31    13    35    1
    32    13    36    1
    33    13    37    1
    34    14    38    1
    35    14    39    1
    36    14    40    1
    37    15    41    1
    38    15    42    1
    39    15    43    1
    40    16    17    1
    41    16    19   ar
    42    18    20   ar
    43    19    21   ar
    44    20    21   ar
    45    21    22    1
    46    22    23    1
    47    22    24    1
    48    22    44    1
    49    23    47    1
    50    23    48    1
    51    23    49    1
    52    24    50    1
    53    24    51    1
    54    24    52    1
    55    25    53    1
    56    25    54    1
    57    25    55    1
