@<TRIPOS>MOLECULE
IMPHY017415
 41 41 0 0 0
SMALL
GASTEIGER

@<TRIPOS>ATOM
      1 O           3.8660    1.2500    0.0000 O.2     1  UNL1       -0.2927
      2 C           3.0000   -2.2500    0.0000 C.3     1  UNL1       -0.0247
      3 C           3.8660   -1.7500    0.0000 C.3     1  UNL1        0.0034
      4 C           3.0000   -3.2500    0.0000 C.3     1  UNL1       -0.0436
      5 C           3.8660   -3.7500    0.0000 C.3     1  UNL1       -0.0340
      6 C           4.7320   -2.2500    0.0000 C.2     1  UNL1       -0.0692
      7 C           2.0000   -2.2500    0.0000 C.3     1  UNL1       -0.0590
      8 C           2.5000   -1.3840    0.0000 C.3     1  UNL1       -0.0590
      9 C           4.7320   -3.2500    0.0000 C.2     1  UNL1       -0.0844
     10 C           3.8660   -0.7500    0.0000 C.2     1  UNL1       -0.0731
     11 C           5.5981   -1.7500    0.0000 C.3     1  UNL1       -0.0432
     12 C           4.7320   -0.2500    0.0000 C.2     1  UNL1       -0.0226
     13 C           4.7320    0.7500    0.0000 C.2     1  UNL1        0.1561
     14 C           5.5981    1.2500    0.0000 C.3     1  UNL1        0.0133
     15 C           5.5981    2.2500    0.0000 C.3     1  UNL1       -0.0280
     16 C           6.4641    2.7500    0.0000 C.2     1  UNL1       -0.0907
     17 C           6.4641    3.7500    0.0000 C.2     1  UNL1       -0.1026
     18 H           4.6022   -1.3250    0.0000 H       1  UNL1        0.0393
     19 H           2.3894   -3.1423    0.0000 H       1  UNL1        0.0274
     20 H           2.7880   -3.8326    0.0000 H       1  UNL1        0.0274
     21 H           3.4675   -4.2250    0.0000 H       1  UNL1        0.0308
     22 H           4.2646   -4.2250    0.0000 H       1  UNL1        0.0308
     23 H           2.0000   -1.6300    0.0000 H       1  UNL1        0.0235
     24 H           1.3800   -2.2500    0.0000 H       1  UNL1        0.0235
     25 H           2.0000   -2.8700    0.0000 H       1  UNL1        0.0235
     26 H           3.0369   -1.0740    0.0000 H       1  UNL1        0.0235
     27 H           2.1900   -0.8470    0.0000 H       1  UNL1        0.0235
     28 H           1.9631   -1.6940    0.0000 H       1  UNL1        0.0235
     29 H           5.2690   -3.5600    0.0000 H       1  UNL1        0.0572
     30 H           3.3291   -0.4400    0.0000 H       1  UNL1        0.0579
     31 H           5.9081   -2.2869    0.0000 H       1  UNL1        0.0275
     32 H           6.1350   -1.4400    0.0000 H       1  UNL1        0.0275
     33 H           5.2881   -1.2131    0.0000 H       1  UNL1        0.0275
     34 H           5.2690   -0.5600    0.0000 H       1  UNL1        0.0649
     35 H           5.8101    0.6674    0.0000 H       1  UNL1        0.0348
     36 H           6.2087    1.3577    0.0000 H       1  UNL1        0.0348
     37 H           5.3860    2.8326    0.0000 H       1  UNL1        0.0311
     38 H           4.9875    2.1423    0.0000 H       1  UNL1        0.0311
     39 H           7.0010    2.4400    0.0000 H       1  UNL1        0.0566
     40 H           7.0010    4.0600    0.0000 H       1  UNL1        0.0532
     41 H           5.9272    4.0600    0.0000 H       1  UNL1        0.0532
@<TRIPOS>BOND
     1     1    13    2
     2     2     3    1
     3     2     4    1
     4     2     7    1
     5     2     8    1
     6     3     6    1
     7     3    10    1
     8     3    18    1
     9     4     5    1
    10     4    19    1
    11     4    20    1
    12     5     9    1
    13     5    21    1
    14     5    22    1
    15     6     9    2
    16     6    11    1
    17     7    23    1
    18     7    24    1
    19     7    25    1
    20     8    26    1
    21     8    27    1
    22     8    28    1
    23     9    29    1
    24    10    12    2
    25    10    30    1
    26    11    31    1
    27    11    32    1
    28    11    33    1
    29    12    13    1
    30    12    34    1
    31    13    14    1
    32    14    15    1
    33    14    35    1
    34    14    36    1
    35    15    16    1
    36    15    37    1
    37    15    38    1
    38    16    17    2
    39    16    39    1
    40    17    40    1
    41    17    41    1
