@<TRIPOS>MOLECULE
IMPHY003995
 86 90 0 0 0
SMALL
GASTEIGER

@<TRIPOS>ATOM
      1 O           3.7320   -2.6574    0.0000 O.3     1  UNL1       -0.4610
      2 O          12.6571    0.4291    0.0000 O.3     1  UNL1       -0.4802
      3 O          11.8027   -1.0775    0.0000 O.2     1  UNL1       -0.2504
      4 O           2.8718   -1.1541    0.0000 O.2     1  UNL1       -0.2512
      5 C           8.2591   -1.1050    0.0000 C.3     1  UNL1       -0.0194
      6 C           7.3931   -0.6051    0.0000 C.3     1  UNL1       -0.0257
      7 C           6.4831   -1.1119    0.0000 C.3     1  UNL1       -0.0249
      8 C           9.1251   -0.6051    0.0000 C.3     1  UNL1       -0.0051
      9 C           6.4750   -2.1535    0.0000 C.3     1  UNL1       -0.0268
     10 C           8.2752   -2.1466    0.0000 C.3     1  UNL1       -0.0463
     11 C           9.1251    0.3949    0.0000 C.2     1  UNL1       -0.0626
     12 C           7.3771   -2.6743    0.0000 C.3     1  UNL1       -0.0486
     13 C           5.5396   -2.7032    0.0000 C.3     1  UNL1        0.0055
     14 C          10.0191    0.9296    0.0000 C.3     1  UNL1       -0.0008
     15 C           7.3931    0.3949    0.0000 C.3     1  UNL1       -0.0306
     16 C          10.0191   -1.1397    0.0000 C.3     1  UNL1       -0.0424
     17 C           5.5562   -0.5478    0.0000 C.3     1  UNL1       -0.0437
     18 C          10.9251    0.4158    0.0000 C.3     1  UNL1        0.0743
     19 C           8.9019   -1.8711    0.0000 C.3     1  UNL1       -0.0585
     20 C          10.9251   -0.6259    0.0000 C.3     1  UNL1       -0.0359
     21 C           4.6000   -2.1607    0.0000 C.3     1  UNL1        0.1084
     22 C           8.2591    0.8949    0.0000 C.2     1  UNL1       -0.0836
     23 C           6.4908   -0.1119    0.0000 C.3     1  UNL1       -0.0590
     24 C           4.6084   -1.0758    0.0000 C.3     1  UNL1       -0.0146
     25 C           9.4672   -1.5447    0.0000 C.3     1  UNL1       -0.0553
     26 C           9.9940    2.0143    0.0000 C.3     1  UNL1       -0.0337
     27 C          11.8689    0.9510    0.0000 C.3     1  UNL1       -0.0364
     28 C          10.9251    2.5712    0.0000 C.3     1  UNL1       -0.0407
     29 C           5.0430   -3.5712    0.0000 C.3     1  UNL1       -0.0562
     30 C           6.0430   -3.5673    0.0000 C.3     1  UNL1       -0.0562
     31 C          11.8689    2.0360    0.0000 C.3     1  UNL1       -0.0492
     32 C          11.7950   -0.0775    0.0000 C.2     1  UNL1        0.3115
     33 C           9.1185    2.4975    0.0000 C.3     1  UNL1       -0.0616
     34 C          10.9136    3.5712    0.0000 C.3     1  UNL1       -0.0622
     35 C           2.8680   -2.1540    0.0000 C.2     1  UNL1        0.3042
     36 C           2.0000   -2.6507    0.0000 C.3     1  UNL1        0.0332
     37 H           8.1292   -0.1801    0.0000 H       1  UNL1        0.0315
     38 H           6.4783   -3.0035    0.0000 H       1  UNL1        0.0312
     39 H           8.4932   -2.7270    0.0000 H       1  UNL1        0.0271
     40 H           8.8843   -2.0311    0.0000 H       1  UNL1        0.0271
     41 H           6.9798   -3.1503    0.0000 H       1  UNL1        0.0268
     42 H           7.7781   -3.1472    0.0000 H       1  UNL1        0.0268
     43 H           9.2749    1.3404    0.0000 H       1  UNL1        0.0359
     44 H           7.1810    0.9776    0.0000 H       1  UNL1        0.0310
     45 H           6.7825    0.2873    0.0000 H       1  UNL1        0.0310
     46 H           9.6145   -1.6095    0.0000 H       1  UNL1        0.0274
     47 H          10.4127   -1.6187    0.0000 H       1  UNL1        0.0274
     48 H           5.9644   -0.0812    0.0000 H       1  UNL1        0.0272
     49 H           5.1663   -0.0658    0.0000 H       1  UNL1        0.0272
     50 H          11.1342   -1.2096    0.0000 H       1  UNL1        0.0276
     51 H          11.5360   -0.5198    0.0000 H       1  UNL1        0.0276
     52 H           8.4269   -2.2696    0.0000 H       1  UNL1        0.0235
     53 H           9.3004   -2.3460    0.0000 H       1  UNL1        0.0235
     54 H           9.3768   -1.4726    0.0000 H       1  UNL1        0.0235
     55 H           4.0648   -1.8476    0.0000 H       1  UNL1        0.0739
     56 H           8.2591    1.5150    0.0000 H       1  UNL1        0.0572
     57 H           7.1108   -0.1167    0.0000 H       1  UNL1        0.0235
     58 H           6.4956    0.5081    0.0000 H       1  UNL1        0.0235
     59 H           5.8708   -0.1071    0.0000 H       1  UNL1        0.0235
     60 H           4.4038   -0.4905    0.0000 H       1  UNL1        0.0301
     61 H           3.9967   -1.1771    0.0000 H       1  UNL1        0.0301
     62 H           8.8846   -1.7568    0.0000 H       1  UNL1        0.0238
     63 H           9.6794   -2.1273    0.0000 H       1  UNL1        0.0238
     64 H          10.0498   -1.3326    0.0000 H       1  UNL1        0.0238
     65 H           9.9832    2.6342    0.0000 H       1  UNL1        0.0307
     66 H          12.0780    0.3673    0.0000 H       1  UNL1        0.0276
     67 H          12.4798    1.0571    0.0000 H       1  UNL1        0.0276
     68 H          10.3841    2.8740    0.0000 H       1  UNL1        0.0301
     69 H           4.5048   -3.2632    0.0000 H       1  UNL1        0.0236
     70 H           4.7350   -4.1093    0.0000 H       1  UNL1        0.0236
     71 H           5.5811   -3.8791    0.0000 H       1  UNL1        0.0236
     72 H           5.5072   -3.8794    0.0000 H       1  UNL1        0.0236
     73 H           6.3550   -4.1030    0.0000 H       1  UNL1        0.0236
     74 H           6.5787   -3.2553    0.0000 H       1  UNL1        0.0236
     75 H          12.4798    1.9299    0.0000 H       1  UNL1        0.0268
     76 H          12.0780    2.6197    0.0000 H       1  UNL1        0.0268
     77 H           9.4181    3.0403    0.0000 H       1  UNL1        0.0233
     78 H           8.5757    2.7971    0.0000 H       1  UNL1        0.0233
     79 H           8.8189    1.9547    0.0000 H       1  UNL1        0.0233
     80 H          11.5335    3.5783    0.0000 H       1  UNL1        0.0233
     81 H          10.9064    4.1911    0.0000 H       1  UNL1        0.0233
     82 H          10.2936    3.5640    0.0000 H       1  UNL1        0.0233
     83 H          13.1964    0.1233    0.0000 H       1  UNL1        0.2951
     84 H           1.6921   -2.1126    0.0000 H       1  UNL1        0.0342
     85 H           1.4619   -2.9586    0.0000 H       1  UNL1        0.0342
     86 H           2.3079   -3.1888    0.0000 H       1  UNL1        0.0342
@<TRIPOS>BOND
     1    21     1    1
     2     1    35    1
     3     2    32    1
     4     2    83    1
     5     3    32    2
     6     4    35    2
     7     5     6    1
     8     5     8    1
     9     5    10    1
    10     5    19    1
    11     6     7    1
    12     6    15    1
    13     6    37    1
    14     7     9    1
    15     7    17    1
    16     7    23    1
    17     8    11    1
    18     8    16    1
    19     8    25    1
    20     9    12    1
    21     9    13    1
    22     9    38    1
    23    10    12    1
    24    10    39    1
    25    10    40    1
    26    11    14    1
    27    11    22    2
    28    12    41    1
    29    12    42    1
    30    13    21    1
    31    13    29    1
    32    13    30    1
    33    14    18    1
    34    14    26    1
    35    14    43    1
    36    15    22    1
    37    15    44    1
    38    15    45    1
    39    16    20    1
    40    16    46    1
    41    16    47    1
    42    17    24    1
    43    17    48    1
    44    17    49    1
    45    18    20    1
    46    18    27    1
    47    18    32    1
    48    19    52    1
    49    19    53    1
    50    19    54    1
    51    20    50    1
    52    20    51    1
    53    21    24    1
    54    21    55    1
    55    22    56    1
    56    23    57    1
    57    23    58    1
    58    23    59    1
    59    24    60    1
    60    24    61    1
    61    25    62    1
    62    25    63    1
    63    25    64    1
    64    26    28    1
    65    26    33    1
    66    26    65    1
    67    27    31    1
    68    27    66    1
    69    27    67    1
    70    28    31    1
    71    28    34    1
    72    28    68    1
    73    29    69    1
    74    29    70    1
    75    29    71    1
    76    30    72    1
    77    30    73    1
    78    30    74    1
    79    31    75    1
    80    31    76    1
    81    33    77    1
    82    33    78    1
    83    33    79    1
    84    34    80    1
    85    34    81    1
    86    34    82    1
    87    35    36    1
    88    36    84    1
    89    36    85    1
    90    36    86    1
