@<TRIPOS>MOLECULE
IMPHY002031
 59 62 0 0 0
SMALL
GASTEIGER

@<TRIPOS>ATOM
      1 O           5.1350   -2.8779    0.0000 O.3     1  UNL1       -0.3313
      2 O           6.8671   -2.8779    0.0000 O.3     1  UNL1       -0.4569
      3 O           5.1350   -5.8779    0.0000 O.3     1  UNL1       -0.3864
      4 O           3.4030   -4.8779    0.0000 O.3     1  UNL1       -0.3865
      5 O           6.8671   -4.8779    0.0000 O.3     1  UNL1       -0.3829
      6 O           2.5369   -3.3779    0.0000 O.3     1  UNL1       -0.3924
      7 O           8.6431    0.1289    0.0000 O.2     1  UNL1       -0.4618
      8 O           5.1350   -1.8779    0.0000 O.3     1  UNL1       -0.4885
      9 O           5.1350    0.1221    0.0000 O.3     1  UNL1       -0.5027
     10 O           5.9793    1.6535    0.0000 O.2     1  UNL1       -0.2863
     11 O           7.7336    5.6913    0.0000 O.3     1  UNL1       -0.4915
     12 O           9.4695    4.6980    0.0000 O.3     1  UNL1       -0.5033
     13 C           5.1350   -4.8779    0.0000 C.3     1  UNL1        0.1152
     14 C           4.2690   -4.3779    0.0000 C.3     1  UNL1        0.1120
     15 C           6.0010   -4.3779    0.0000 C.3     1  UNL1        0.1454
     16 C           4.2690   -3.3779    0.0000 C.3     1  UNL1        0.1140
     17 C           6.0010   -3.3779    0.0000 C.3     1  UNL1        0.2310
     18 C           3.4030   -2.8779    0.0000 C.3     1  UNL1        0.0731
     19 C           6.8671   -1.8779    0.0000 C.ar    1  UNL1        0.1726
     20 C           6.0010   -1.3779    0.0000 C.ar    1  UNL1        0.2044
     21 C           7.7331   -1.3779    0.0000 C.ar    1  UNL1        0.0271
     22 C           7.7331   -0.3779    0.0000 C.ar    1  UNL1        0.1457
     23 C           6.8671    0.1221    0.0000 C.ar    1  UNL1        0.1097
     24 C           6.0010   -0.3779    0.0000 C.ar    1  UNL1        0.1768
     25 C           6.8510    1.1636    0.0000 C.ar    1  UNL1        0.2038
     26 C           7.7490    1.6913    0.0000 C.ar    1  UNL1        0.0645
     27 C           8.6511    1.1705    0.0000 C.ar    1  UNL1        0.1038
     28 C           7.7452    2.6913    0.0000 C.ar    1  UNL1       -0.0076
     29 C           4.2690   -1.3779    0.0000 C.3     1  UNL1        0.0791
     30 C           8.6093    3.1946    0.0000 C.ar    1  UNL1       -0.0086
     31 C           6.8772    3.1880    0.0000 C.ar    1  UNL1       -0.0501
     32 C           8.6054    4.1946    0.0000 C.ar    1  UNL1        0.1590
     33 C           6.8734    4.1880    0.0000 C.ar    1  UNL1       -0.0157
     34 C           7.7375    4.6913    0.0000 C.ar    1  UNL1        0.1613
     35 C           6.8657    6.1879    0.0000 C.3     1  UNL1        0.0790
     36 H           5.6720   -5.1879    0.0000 H       1  UNL1        0.0648
     37 H           4.2690   -4.9979    0.0000 H       1  UNL1        0.0647
     38 H           6.5380   -4.0680    0.0000 H       1  UNL1        0.0683
     39 H           4.2690   -2.7579    0.0000 H       1  UNL1        0.0647
     40 H           6.0010   -2.7579    0.0000 H       1  UNL1        0.1084
     41 H           3.8015   -2.4030    0.0000 H       1  UNL1        0.0584
     42 H           3.0044   -2.4030    0.0000 H       1  UNL1        0.0584
     43 H           4.5981   -6.1879    0.0000 H       1  UNL1        0.2100
     44 H           3.4030   -5.4979    0.0000 H       1  UNL1        0.2100
     45 H           6.8671   -5.4979    0.0000 H       1  UNL1        0.2102
     46 H           2.0000   -3.0679    0.0000 H       1  UNL1        0.2095
     47 H           8.2700   -1.6879    0.0000 H       1  UNL1        0.0692
     48 H           9.1892    1.4784    0.0000 H       1  UNL1        0.1037
     49 H           4.5981   -0.1879    0.0000 H       1  UNL1        0.2923
     50 H           4.5790   -0.8410    0.0000 H       1  UNL1        0.0660
     51 H           3.7320   -1.0679    0.0000 H       1  UNL1        0.0660
     52 H           3.9590   -1.9149    0.0000 H       1  UNL1        0.0660
     53 H           9.1474    2.8867    0.0000 H       1  UNL1        0.0661
     54 H           6.3415    2.8759    0.0000 H       1  UNL1        0.0625
     55 H           6.3353    4.4959    0.0000 H       1  UNL1        0.0655
     56 H          10.0076    4.3900    0.0000 H       1  UNL1        0.2923
     57 H           7.1736    6.7261    0.0000 H       1  UNL1        0.0660
     58 H           6.3275    6.4959    0.0000 H       1  UNL1        0.0660
     59 H           6.5578    5.6498    0.0000 H       1  UNL1        0.0660
@<TRIPOS>BOND
     1     1    16    1
     2     1    17    1
     3    17     2    1
     4     2    19    1
     5    13     3    1
     6     3    43    1
     7    14     4    1
     8     4    44    1
     9    15     5    1
    10     5    45    1
    11     6    18    1
    12     6    46    1
    13     7    22   ar
    14     7    27   ar
    15     8    20    1
    16     8    29    1
    17     9    24    1
    18     9    49    1
    19    10    25    2
    20    11    34    1
    21    11    35    1
    22    12    32    1
    23    12    56    1
    24    13    14    1
    25    13    15    1
    26    13    36    1
    27    14    16    1
    28    14    37    1
    29    15    17    1
    30    15    38    1
    31    16    18    1
    32    16    39    1
    33    17    40    1
    34    18    41    1
    35    18    42    1
    36    19    20   ar
    37    19    21   ar
    38    20    24   ar
    39    21    22   ar
    40    21    47    1
    41    22    23   ar
    42    23    24   ar
    43    23    25   ar
    44    25    26   ar
    45    26    27   ar
    46    26    28    1
    47    27    48    1
    48    28    30   ar
    49    28    31   ar
    50    29    50    1
    51    29    51    1
    52    29    52    1
    53    30    32   ar
    54    30    53    1
    55    31    33   ar
    56    31    54    1
    57    32    34   ar
    58    33    34   ar
    59    33    55    1
    60    35    57    1
    61    35    58    1
    62    35    59    1
