@<TRIPOS>MOLECULE
IMPHY010506
 39 40 0 0 0
SMALL
GASTEIGER

@<TRIPOS>ATOM
      1 O           4.3723   -1.7514    0.0000 O.3     1  UNL1       -0.4532
      2 O           2.8495    1.2204    0.0000 O.3     1  UNL1       -0.3870
      3 O           7.1796    0.7204    0.0000 O.3     1  UNL1       -0.3875
      4 O           2.8836   -2.7204    0.0000 O.2     1  UNL1       -0.2453
      5 C           3.7155   -0.2796    0.0000 C.3     1  UNL1        0.0606
      6 C           4.5816   -0.7796    0.0000 C.3     1  UNL1        0.1315
      7 C           3.7155    0.7204    0.0000 C.3     1  UNL1        0.0843
      8 C           2.9785   -0.9466    0.0000 C.2     1  UNL1        0.0392
      9 C           5.4476   -0.2796    0.0000 C.2     1  UNL1       -0.0419
     10 C           6.3136    1.2204    0.0000 C.3     1  UNL1        0.0764
     11 C           6.3136    2.2204    0.0000 C.3     1  UNL1       -0.0193
     12 C           5.4476    0.7204    0.0000 C.2     1  UNL1       -0.0450
     13 C           4.5816    1.2204    0.0000 C.2     1  UNL1       -0.0562
     14 C           5.4476    2.7204    0.0000 C.3     1  UNL1       -0.0293
     15 C           4.5816    2.2204    0.0000 C.2     1  UNL1       -0.0740
     16 C           3.3836   -1.8544    0.0000 C.2     1  UNL1        0.3357
     17 C           3.9910    1.2506    0.0000 C.3     1  UNL1       -0.0413
     18 C           2.0000   -0.7404    0.0000 C.2     1  UNL1       -0.0882
     19 C           3.7155    2.7204    0.0000 C.3     1  UNL1       -0.0437
     20 H           2.9386    0.0652    0.0000 H       1  UNL1        0.0419
     21 H           5.2686   -1.2801    0.0000 H       1  UNL1        0.0786
     22 H           3.7155    1.3404    0.0000 H       1  UNL1        0.0645
     23 H           5.9845   -0.5896    0.0000 H       1  UNL1        0.0609
     24 H           6.8505    1.5304    0.0000 H       1  UNL1        0.0640
     25 H           6.9242    2.1128    0.0000 H       1  UNL1        0.0296
     26 H           6.5256    2.8031    0.0000 H       1  UNL1        0.0296
     27 H           5.1921    1.3281    0.0000 H       1  UNL1        0.0597
     28 H           5.8461    3.1954    0.0000 H       1  UNL1        0.0311
     29 H           5.0490    3.1954    0.0000 H       1  UNL1        0.0311
     30 H           4.2031    1.8332    0.0000 H       1  UNL1        0.0275
     31 H           3.4084    1.4626    0.0000 H       1  UNL1        0.0275
     32 H           3.7790    0.6680    0.0000 H       1  UNL1        0.0275
     33 H           2.3126    0.9104    0.0000 H       1  UNL1        0.2102
     34 H           1.8074   -0.1511    0.0000 H       1  UNL1        0.0540
     35 H           1.5859   -1.2019    0.0000 H       1  UNL1        0.0540
     36 H           4.0255    3.2574    0.0000 H       1  UNL1        0.0274
     37 H           3.1786    3.0304    0.0000 H       1  UNL1        0.0274
     38 H           3.4055    2.1835    0.0000 H       1  UNL1        0.0274
     39 H           7.7166    1.0304    0.0000 H       1  UNL1        0.2102
@<TRIPOS>BOND
     1     1     6    1
     2     1    16    1
     3     7     2    1
     4     2    33    1
     5    10     3    1
     6     3    39    1
     7     4    16    2
     8     5     6    1
     9     5     7    1
    10     5     8    1
    11     5    20    1
    12     6     9    1
    13     6    21    1
    14     7    13    1
    15     7    22    1
    16     8    16    1
    17     8    18    2
    18     9    12    2
    19     9    23    1
    20    10    11    1
    21    10    12    1
    22    10    24    1
    23    11    14    1
    24    11    25    1
    25    11    26    1
    26    12    17    1
    27    13    15    2
    28    13    27    1
    29    14    15    1
    30    14    28    1
    31    14    29    1
    32    15    19    1
    33    17    30    1
    34    17    31    1
    35    17    32    1
    36    18    34    1
    37    18    35    1
    38    19    36    1
    39    19    37    1
    40    19    38    1
