@<TRIPOS>MOLECULE
IMPHY015971
 40 41 0 0 0
SMALL
GASTEIGER

@<TRIPOS>ATOM
      1 O           8.0627   -0.2500    0.0000 O.3     1  UNL1       -0.3650
      2 C           7.1962    0.2500    0.0000 C.3     1  UNL1        0.0932
      3 C           7.1962   -0.7500    0.0000 C.3     1  UNL1        0.0887
      4 C           6.3301    0.7500    0.0000 C.3     1  UNL1       -0.0210
      5 C           6.3301   -1.2500    0.0000 C.3     1  UNL1       -0.0173
      6 C           5.4641   -0.7500    0.0000 C.3     1  UNL1       -0.0176
      7 C           5.4641    0.2500    0.0000 C.3     1  UNL1       -0.0438
      8 C           7.1962    1.2500    0.0000 C.3     1  UNL1       -0.0334
      9 C           4.5981   -1.2500    0.0000 C.2     1  UNL1       -0.0731
     10 C           4.5981   -2.2500    0.0000 C.3     1  UNL1       -0.0435
     11 C           3.7320   -0.7500    0.0000 C.2     1  UNL1       -0.0810
     12 C           3.7320    0.2500    0.0000 C.3     1  UNL1       -0.0161
     13 C           2.8660    0.7500    0.0000 C.2     1  UNL1       -0.0815
     14 C           2.8660    1.7500    0.0000 C.2     1  UNL1       -0.0793
     15 C           2.0000    2.2500    0.0000 C.3     1  UNL1       -0.0440
     16 C           3.7320    2.2500    0.0000 C.3     1  UNL1       -0.0440
     17 H           7.5061   -1.2870    0.0000 H       1  UNL1        0.0625
     18 H           6.7287    1.2250    0.0000 H       1  UNL1        0.0294
     19 H           5.9316    1.2250    0.0000 H       1  UNL1        0.0294
     20 H           5.9316   -1.7250    0.0000 H       1  UNL1        0.0297
     21 H           6.7287   -1.7250    0.0000 H       1  UNL1        0.0297
     22 H           5.4641   -1.3700    0.0000 H       1  UNL1        0.0346
     23 H           5.2520    0.8326    0.0000 H       1  UNL1        0.0272
     24 H           4.8535    0.1423    0.0000 H       1  UNL1        0.0272
     25 H           7.8162    1.2500    0.0000 H       1  UNL1        0.0258
     26 H           7.1962    1.8700    0.0000 H       1  UNL1        0.0258
     27 H           6.5762    1.2500    0.0000 H       1  UNL1        0.0258
     28 H           3.9781   -2.2500    0.0000 H       1  UNL1        0.0274
     29 H           4.5981   -2.8700    0.0000 H       1  UNL1        0.0274
     30 H           5.2181   -2.2500    0.0000 H       1  UNL1        0.0274
     31 H           3.1951   -1.0600    0.0000 H       1  UNL1        0.0575
     32 H           4.3426    0.1423    0.0000 H       1  UNL1        0.0350
     33 H           3.9441    0.8326    0.0000 H       1  UNL1        0.0350
     34 H           2.3291    0.4400    0.0000 H       1  UNL1        0.0575
     35 H           2.3100    2.7869    0.0000 H       1  UNL1        0.0274
     36 H           1.4631    2.5600    0.0000 H       1  UNL1        0.0274
     37 H           1.6900    1.7131    0.0000 H       1  UNL1        0.0274
     38 H           4.0420    1.7131    0.0000 H       1  UNL1        0.0274
     39 H           4.2690    2.5600    0.0000 H       1  UNL1        0.0274
     40 H           3.4220    2.7869    0.0000 H       1  UNL1        0.0274
@<TRIPOS>BOND
     1     1     2    1
     2     1     3    1
     3     2     3    1
     4     2     4    1
     5     2     8    1
     6     3     5    1
     7     3    17    1
     8     4     7    1
     9     4    18    1
    10     4    19    1
    11     5     6    1
    12     5    20    1
    13     5    21    1
    14     6     7    1
    15     6     9    1
    16     6    22    1
    17     7    23    1
    18     7    24    1
    19     8    25    1
    20     8    26    1
    21     8    27    1
    22     9    10    1
    23     9    11    2
    24    10    28    1
    25    10    29    1
    26    10    30    1
    27    11    12    1
    28    11    31    1
    29    12    13    1
    30    12    32    1
    31    12    33    1
    32    13    14    2
    33    13    34    1
    34    14    15    1
    35    14    16    1
    36    15    35    1
    37    15    36    1
    38    15    37    1
    39    16    38    1
    40    16    39    1
    41    16    40    1
