@<TRIPOS>MOLECULE
IMPHY016867
 36 36 0 0 0
SMALL
GASTEIGER

@<TRIPOS>ATOM
      1 O           3.7320    0.0000    0.0000 O.3     1  UNL1       -0.4612
      2 O           2.8660   -1.5000    0.0000 O.2     1  UNL1       -0.2512
      3 C           5.4641    0.0000    0.0000 C.3     1  UNL1        0.0011
      4 C           5.4641    1.0000    0.0000 C.3     1  UNL1       -0.0315
      5 C           4.5981   -0.5000    0.0000 C.3     1  UNL1        0.1063
      6 C           6.3301   -0.5000    0.0000 C.3     1  UNL1       -0.0464
      7 C           4.5981   -1.5000    0.0000 C.3     1  UNL1       -0.0154
      8 C           6.3301   -1.5000    0.0000 C.3     1  UNL1       -0.0526
      9 C           5.4641   -2.0000    0.0000 C.3     1  UNL1       -0.0497
     10 C           5.4641    2.0000    0.0000 C.3     1  UNL1       -0.0597
     11 C           6.4641    1.0000    0.0000 C.3     1  UNL1       -0.0597
     12 C           4.4641    1.0000    0.0000 C.3     1  UNL1       -0.0597
     13 C           2.8660   -0.5000    0.0000 C.2     1  UNL1        0.3042
     14 C           2.0000    0.0000    0.0000 C.3     1  UNL1        0.0332
     15 H           6.2002    0.4250    0.0000 H       1  UNL1        0.0342
     16 H           4.5981    0.1200    0.0000 H       1  UNL1        0.0737
     17 H           6.9407   -0.6077    0.0000 H       1  UNL1        0.0269
     18 H           6.5422    0.0826    0.0000 H       1  UNL1        0.0269
     19 H           3.9875   -1.3923    0.0000 H       1  UNL1        0.0301
     20 H           4.3860   -2.0826    0.0000 H       1  UNL1        0.0301
     21 H           6.5422   -2.0826    0.0000 H       1  UNL1        0.0265
     22 H           6.9407   -1.3923    0.0000 H       1  UNL1        0.0265
     23 H           5.0656   -2.4750    0.0000 H       1  UNL1        0.0266
     24 H           5.8626   -2.4750    0.0000 H       1  UNL1        0.0266
     25 H           6.0841    2.0000    0.0000 H       1  UNL1        0.0235
     26 H           5.4641    2.6200    0.0000 H       1  UNL1        0.0235
     27 H           4.8441    2.0000    0.0000 H       1  UNL1        0.0235
     28 H           6.4641    0.3800    0.0000 H       1  UNL1        0.0235
     29 H           7.0841    1.0000    0.0000 H       1  UNL1        0.0235
     30 H           6.4641    1.6200    0.0000 H       1  UNL1        0.0235
     31 H           4.4641    1.6200    0.0000 H       1  UNL1        0.0235
     32 H           3.8441    1.0000    0.0000 H       1  UNL1        0.0235
     33 H           4.4641    0.3800    0.0000 H       1  UNL1        0.0235
     34 H           2.3100    0.5369    0.0000 H       1  UNL1        0.0342
     35 H           1.4631    0.3100    0.0000 H       1  UNL1        0.0342
     36 H           1.6900   -0.5369    0.0000 H       1  UNL1        0.0342
@<TRIPOS>BOND
     1     5     1    1
     2     1    13    1
     3     2    13    2
     4     3     4    1
     5     3     5    1
     6     3     6    1
     7     3    15    1
     8     4    10    1
     9     4    11    1
    10     4    12    1
    11     5     7    1
    12     5    16    1
    13     6     8    1
    14     6    17    1
    15     6    18    1
    16     7     9    1
    17     7    19    1
    18     7    20    1
    19     8     9    1
    20     8    21    1
    21     8    22    1
    22     9    23    1
    23     9    24    1
    24    10    25    1
    25    10    26    1
    26    10    27    1
    27    11    28    1
    28    11    29    1
    29    11    30    1
    30    12    31    1
    31    12    32    1
    32    12    33    1
    33    13    14    1
    34    14    34    1
    35    14    35    1
    36    14    36    1
