@<TRIPOS>MOLECULE
IMPHY007205
 68 68 0 0 0
SMALL
GASTEIGER

@<TRIPOS>ATOM
      1 O           3.7320    0.5179    0.0000 O.2     1  UNL1       -0.5096
      2 O           7.1962    0.5179    0.0000 O.2     1  UNL1       -0.2907
      3 O           5.4641   -2.4820    0.0000 O.2     1  UNL1       -0.5056
      4 O           8.0622   -0.9821    0.0000 O.2     1  UNL1       -0.2918
      5 C           5.4641    0.5179    0.0000 C.3     1  UNL1        0.0977
      6 C           5.9641    1.3840    0.0000 C.3     1  UNL1       -0.0145
      7 C           4.9641    1.3840    0.0000 C.3     1  UNL1       -0.0145
      8 C           4.5981    0.0179    0.0000 C.2     1  UNL1        0.1152
      9 C           6.3301    0.0179    0.0000 C.2     1  UNL1        0.1840
     10 C           4.5981   -0.9821    0.0000 C.2     1  UNL1        0.0367
     11 C           6.3301   -0.9821    0.0000 C.2     1  UNL1        0.1024
     12 C           5.4641   -1.4820    0.0000 C.2     1  UNL1        0.1373
     13 C           5.4641    2.2500    0.0000 C.2     1  UNL1       -0.0839
     14 C           3.9641    1.3840    0.0000 C.2     1  UNL1       -0.0839
     15 C           3.7320   -1.4820    0.0000 C.3     1  UNL1       -0.0026
     16 C           7.1962   -1.4820    0.0000 C.2     1  UNL1        0.1703
     17 C           7.1962   -2.4820    0.0000 C.3     1  UNL1        0.0130
     18 C           8.0622   -2.9820    0.0000 C.3     1  UNL1       -0.0397
     19 C           5.9641    3.1160    0.0000 C.2     1  UNL1       -0.0796
     20 C           3.4641    2.2500    0.0000 C.2     1  UNL1       -0.0796
     21 C           3.7320   -2.4820    0.0000 C.2     1  UNL1       -0.0808
     22 C           8.0622   -3.9820    0.0000 C.3     1  UNL1       -0.0623
     23 C           8.9282   -2.4820    0.0000 C.3     1  UNL1       -0.0623
     24 C           5.4641    3.9820    0.0000 C.3     1  UNL1       -0.0440
     25 C           6.9641    3.1160    0.0000 C.3     1  UNL1       -0.0440
     26 C           2.4641    2.2500    0.0000 C.3     1  UNL1       -0.0440
     27 C           3.9641    3.1160    0.0000 C.3     1  UNL1       -0.0440
     28 C           2.8660   -2.9820    0.0000 C.2     1  UNL1       -0.0793
     29 C           2.8660   -3.9820    0.0000 C.3     1  UNL1       -0.0440
     30 C           2.0000   -2.4820    0.0000 C.3     1  UNL1       -0.0440
     31 H           6.4390    0.9854    0.0000 H       1  UNL1        0.0321
     32 H           6.4390    1.7825    0.0000 H       1  UNL1        0.0321
     33 H           5.5467    1.5960    0.0000 H       1  UNL1        0.0321
     34 H           4.8564    1.9946    0.0000 H       1  UNL1        0.0321
     35 H           4.8441    2.2500    0.0000 H       1  UNL1        0.0572
     36 H           3.6541    0.8470    0.0000 H       1  UNL1        0.0572
     37 H           3.5200   -0.8994    0.0000 H       1  UNL1        0.0358
     38 H           3.1215   -1.5897    0.0000 H       1  UNL1        0.0358
     39 H           6.5856   -2.3744    0.0000 H       1  UNL1        0.0348
     40 H           6.9841   -3.0647    0.0000 H       1  UNL1        0.0348
     41 H           8.0622   -2.3620    0.0000 H       1  UNL1        0.0300
     42 H           3.1951    0.2079    0.0000 H       1  UNL1        0.2917
     43 H           4.2690   -2.7920    0.0000 H       1  UNL1        0.0575
     44 H           4.9272   -2.7920    0.0000 H       1  UNL1        0.2922
     45 H           7.4422   -3.9820    0.0000 H       1  UNL1        0.0232
     46 H           8.0622   -4.6020    0.0000 H       1  UNL1        0.0232
     47 H           8.6822   -3.9820    0.0000 H       1  UNL1        0.0232
     48 H           9.2382   -3.0190    0.0000 H       1  UNL1        0.0232
     49 H           9.4651   -2.1720    0.0000 H       1  UNL1        0.0232
     50 H           8.6182   -1.9451    0.0000 H       1  UNL1        0.0232
     51 H           6.0010    4.2920    0.0000 H       1  UNL1        0.0274
     52 H           5.1541    4.5190    0.0000 H       1  UNL1        0.0274
     53 H           4.9272    3.6720    0.0000 H       1  UNL1        0.0274
     54 H           6.9641    2.4960    0.0000 H       1  UNL1        0.0274
     55 H           7.5841    3.1160    0.0000 H       1  UNL1        0.0274
     56 H           6.9641    3.7360    0.0000 H       1  UNL1        0.0274
     57 H           2.4641    2.8700    0.0000 H       1  UNL1        0.0274
     58 H           1.8441    2.2500    0.0000 H       1  UNL1        0.0274
     59 H           2.4641    1.6300    0.0000 H       1  UNL1        0.0274
     60 H           4.5010    2.8060    0.0000 H       1  UNL1        0.0274
     61 H           4.2741    3.6530    0.0000 H       1  UNL1        0.0274
     62 H           3.4272    3.4260    0.0000 H       1  UNL1        0.0274
     63 H           2.2460   -3.9820    0.0000 H       1  UNL1        0.0274
     64 H           2.8660   -4.6020    0.0000 H       1  UNL1        0.0274
     65 H           3.4860   -3.9820    0.0000 H       1  UNL1        0.0274
     66 H           2.3100   -1.9451    0.0000 H       1  UNL1        0.0274
     67 H           1.4631   -2.1720    0.0000 H       1  UNL1        0.0274
     68 H           1.6900   -3.0190    0.0000 H       1  UNL1        0.0274
@<TRIPOS>BOND
     1     1     8    1
     2     1    42    1
     3     2     9    2
     4     3    12    1
     5     3    44    1
     6     4    16    2
     7     5     6    1
     8     5     7    1
     9     5     8    1
    10     5     9    1
    11     6    13    1
    12     6    31    1
    13     6    32    1
    14     7    14    1
    15     7    33    1
    16     7    34    1
    17     8    10    2
    18     9    11    1
    19    10    12    1
    20    10    15    1
    21    11    12    2
    22    11    16    1
    23    13    19    2
    24    13    35    1
    25    14    20    2
    26    14    36    1
    27    15    21    1
    28    15    37    1
    29    15    38    1
    30    16    17    1
    31    17    18    1
    32    17    39    1
    33    17    40    1
    34    18    22    1
    35    18    23    1
    36    18    41    1
    37    19    24    1
    38    19    25    1
    39    20    26    1
    40    20    27    1
    41    21    28    2
    42    21    43    1
    43    22    45    1
    44    22    46    1
    45    22    47    1
    46    23    48    1
    47    23    49    1
    48    23    50    1
    49    24    51    1
    50    24    52    1
    51    24    53    1
    52    25    54    1
    53    25    55    1
    54    25    56    1
    55    26    57    1
    56    26    58    1
    57    26    59    1
    58    27    60    1
    59    27    61    1
    60    27    62    1
    61    28    29    1
    62    28    30    1
    63    29    63    1
    64    29    64    1
    65    29    65    1
    66    30    66    1
    67    30    67    1
    68    30    68    1
