@<TRIPOS>MOLECULE
IMPHY009276
 100 105 0 0 0
SMALL
GASTEIGER

@<TRIPOS>ATOM
      1 O           5.7393   -0.2206    0.0000 O.3     1  UNL1       -0.3373
      2 O           6.3788   -1.2607    0.0000 O.3     1  UNL1       -0.3638
      3 O           5.1403   -1.4096    0.0000 O.3     1  UNL1       -0.4576
      4 O           8.9376   -1.8835    0.0000 O.3     1  UNL1       -0.4600
      5 O           2.8641    2.2720    0.0000 O.3     1  UNL1       -0.4559
      6 O           2.0000    0.7271    0.0000 O.2     1  UNL1       -0.2508
      7 O           9.9485    2.6582    0.0000 O.3     1  UNL1       -0.4679
      8 O          10.1480    0.9377    0.0000 O.2     1  UNL1       -0.2509
      9 O           6.3216   -2.6762    0.0000 O.2     1  UNL1       -0.2505
     10 O           3.2996    5.3303    0.0000 O.2     1  UNL1       -0.4706
     11 O           7.5316   -2.8950    0.0000 O.2     1  UNL1       -0.2505
     12 C           5.5301    0.7512    0.0000 C.3     1  UNL1        0.1174
     13 C           6.3961    1.2512    0.0000 C.3     1  UNL1        0.0026
     14 C           7.1332    0.5841    0.0000 C.3     1  UNL1        0.0233
     15 C           6.7280   -0.3237    0.0000 C.3     1  UNL1        0.1813
     16 C           7.3230   -1.1712    0.0000 C.3     1  UNL1        0.0903
     17 C           5.8716   -0.7275    0.0000 C.3     1  UNL1        0.1436
     18 C           4.6641    1.2512    0.0000 C.3     1  UNL1        0.0111
     19 C           8.1613    0.7073    0.0000 C.3     1  UNL1       -0.0144
     20 C           6.3961    2.2512    0.0000 C.3     1  UNL1       -0.0372
     21 C           4.6641    2.2512    0.0000 C.3     1  UNL1        0.0156
     22 C           8.7756   -0.1262    0.0000 C.3     1  UNL1        0.0065
     23 C           8.3536   -1.0718    0.0000 C.3     1  UNL1        0.1196
     24 C           5.5301    2.7512    0.0000 C.3     1  UNL1       -0.0406
     25 C           3.7702    0.7166    0.0000 C.3     1  UNL1        0.0511
     26 C           3.7702    2.7859    0.0000 C.3     1  UNL1        0.1366
     27 C           8.5582    1.6252    0.0000 C.3     1  UNL1        0.0488
     28 C           7.2622    2.7512    0.0000 C.3     1  UNL1       -0.0620
     29 C           4.6641    3.2512    0.0000 C.3     1  UNL1       -0.0555
     30 C           9.6904   -0.5302    0.0000 C.3     1  UNL1       -0.0562
     31 C           9.5829    0.4640    0.0000 C.3     1  UNL1       -0.0562
     32 C           2.8641    1.2304    0.0000 C.2     1  UNL1        0.3081
     33 C           3.7817    3.7858    0.0000 C.ar    1  UNL1        0.0309
     34 C           9.5516    1.7404    0.0000 C.2     1  UNL1        0.3071
     35 C           5.3653   -2.3839    0.0000 C.2     1  UNL1        0.3103
     36 C           8.5266   -2.7952    0.0000 C.2     1  UNL1        0.3102
     37 C           4.6340   -3.0660    0.0000 C.3     1  UNL1        0.0534
     38 C           4.5975    4.3642    0.0000 C.ar    1  UNL1       -0.0172
     39 C           2.9796    4.3829    0.0000 C.ar    1  UNL1        0.0984
     40 C           9.1105   -3.6069    0.0000 C.3     1  UNL1        0.0534
     41 C           4.2995    5.3188    0.0000 C.ar    1  UNL1        0.0921
     42 C           4.8590   -4.0403    0.0000 C.3     1  UNL1       -0.0432
     43 C           3.6776   -2.7736    0.0000 C.3     1  UNL1       -0.0523
     44 C           8.6995   -4.5186    0.0000 C.3     1  UNL1       -0.0432
     45 C          10.1055   -3.5071    0.0000 C.3     1  UNL1       -0.0523
     46 C          10.9418    2.7734    0.0000 C.3     1  UNL1        0.0817
     47 C           4.1276   -4.7223    0.0000 C.3     1  UNL1       -0.0645
     48 C           9.2834   -5.3303    0.0000 C.3     1  UNL1       -0.0645
     49 H           6.9629    1.5027    0.0000 H       1  UNL1        0.0337
     50 H           7.3212    1.1749    0.0000 H       1  UNL1        0.0359
     51 H           7.2609   -1.7880    0.0000 H       1  UNL1        0.0427
     52 H           5.2787   -0.5463    0.0000 H       1  UNL1        0.0769
     53 H           4.6689    0.6312    0.0000 H       1  UNL1        0.0342
     54 H           7.7905    1.2043    0.0000 H       1  UNL1        0.0317
     55 H           6.9331    1.9412    0.0000 H       1  UNL1        0.0302
     56 H           8.9704   -1.0087    0.0000 H       1  UNL1        0.0745
     57 H           5.9286    3.2262    0.0000 H       1  UNL1        0.0275
     58 H           5.1316    3.2262    0.0000 H       1  UNL1        0.0275
     59 H           3.3765    0.2375    0.0000 H       1  UNL1        0.0381
     60 H           4.1748    0.2468    0.0000 H       1  UNL1        0.0381
     61 H           3.2362    3.1010    0.0000 H       1  UNL1        0.0792
     62 H           8.5948    2.2441    0.0000 H       1  UNL1        0.0380
     63 H           7.9551    1.7687    0.0000 H       1  UNL1        0.0380
     64 H           6.7737   -1.7387    0.0000 H       1  UNL1        0.2128
     65 H           7.5722    2.2143    0.0000 H       1  UNL1        0.0233
     66 H           7.7991    3.0612    0.0000 H       1  UNL1        0.0233
     67 H           6.9522    3.2882    0.0000 H       1  UNL1        0.0233
     68 H           5.2841    3.2512    0.0000 H       1  UNL1        0.0236
     69 H           4.6641    3.8712    0.0000 H       1  UNL1        0.0236
     70 H           4.0441    3.2512    0.0000 H       1  UNL1        0.0236
     71 H           9.9488   -0.0365    0.0000 H       1  UNL1        0.0236
     72 H          10.0834    0.8299    0.0000 H       1  UNL1        0.0236
     73 H           9.2170    0.9645    0.0000 H       1  UNL1        0.0236
     74 H           9.4399   -1.0973    0.0000 H       1  UNL1        0.0236
     75 H          10.2575   -0.7807    0.0000 H       1  UNL1        0.0236
     76 H           9.9409    0.0370    0.0000 H       1  UNL1        0.0236
     77 H           4.1806   -3.4888    0.0000 H       1  UNL1        0.0410
     78 H           5.1849    4.1658    0.0000 H       1  UNL1        0.0653
     79 H           2.3877    4.1982    0.0000 H       1  UNL1        0.1033
     80 H           9.3654   -3.0417    0.0000 H       1  UNL1        0.0410
     81 H           4.6697    5.8161    0.0000 H       1  UNL1        0.1029
     82 H           5.1967   -4.5603    0.0000 H       1  UNL1        0.0270
     83 H           5.4297   -3.7980    0.0000 H       1  UNL1        0.0270
     84 H           3.8589   -2.1807    0.0000 H       1  UNL1        0.0238
     85 H           3.0847   -2.5924    0.0000 H       1  UNL1        0.0238
     86 H           3.4964   -3.3666    0.0000 H       1  UNL1        0.0238
     87 H           8.1871   -4.1694    0.0000 H       1  UNL1        0.0270
     88 H           8.2667   -4.9625    0.0000 H       1  UNL1        0.0270
     89 H          10.1674   -4.1240    0.0000 H       1  UNL1        0.0238
     90 H          10.7224   -3.4452    0.0000 H       1  UNL1        0.0238
     91 H          10.0436   -2.8902    0.0000 H       1  UNL1        0.0238
     92 H          11.0132    2.1575    0.0000 H       1  UNL1        0.0661
     93 H          11.5577    2.8448    0.0000 H       1  UNL1        0.0661
     94 H          10.8704    3.3892    0.0000 H       1  UNL1        0.0661
     95 H           3.7048   -4.2689    0.0000 H       1  UNL1        0.0230
     96 H           3.6742   -5.1452    0.0000 H       1  UNL1        0.0230
     97 H           4.5505   -5.1758    0.0000 H       1  UNL1        0.0230
     98 H           8.7801   -5.6924    0.0000 H       1  UNL1        0.0230
     99 H           9.6455   -5.8336    0.0000 H       1  UNL1        0.0230
    100 H           9.7867   -4.9683    0.0000 H       1  UNL1        0.0230
@<TRIPOS>BOND
     1     1    12    1
     2     1    15    1
     3     2    15    1
     4     2    64    1
     5     3    17    1
     6     3    35    1
     7     4    23    1
     8     4    36    1
     9     5    26    1
    10     5    32    1
    11     6    32    2
    12     7    34    1
    13     7    46    1
    14     8    34    2
    15     9    35    2
    16    10    39   ar
    17    10    41   ar
    18    11    36    2
    19    12    13    1
    20    12    17    1
    21    12    18    1
    22    13    14    1
    23    13    20    1
    24    13    49    1
    25    14    15    1
    26    14    19    1
    27    14    50    1
    28    15    16    1
    29    16    17    1
    30    16    23    1
    31    16    51    1
    32    17    52    1
    33    18    21    1
    34    18    25    1
    35    18    53    1
    36    19    22    1
    37    19    27    1
    38    19    54    1
    39    20    24    1
    40    20    28    1
    41    20    55    1
    42    21    24    1
    43    21    26    1
    44    21    29    1
    45    22    23    1
    46    22    30    1
    47    22    31    1
    48    23    56    1
    49    24    57    1
    50    24    58    1
    51    25    32    1
    52    25    59    1
    53    25    60    1
    54    26    33    1
    55    26    61    1
    56    27    34    1
    57    27    62    1
    58    27    63    1
    59    28    65    1
    60    28    66    1
    61    28    67    1
    62    29    68    1
    63    29    69    1
    64    29    70    1
    65    30    74    1
    66    30    75    1
    67    30    76    1
    68    31    71    1
    69    31    72    1
    70    31    73    1
    71    33    38   ar
    72    33    39   ar
    73    35    37    1
    74    36    40    1
    75    37    42    1
    76    37    43    1
    77    37    77    1
    78    38    41   ar
    79    38    78    1
    80    39    79    1
    81    40    44    1
    82    40    45    1
    83    40    80    1
    84    41    81    1
    85    42    47    1
    86    42    82    1
    87    42    83    1
    88    43    84    1
    89    43    85    1
    90    43    86    1
    91    44    48    1
    92    44    87    1
    93    44    88    1
    94    45    89    1
    95    45    90    1
    96    45    91    1
    97    46    92    1
    98    46    93    1
    99    46    94    1
   100    47    95    1
   101    47    96    1
   102    47    97    1
   103    48    98    1
   104    48    99    1
   105    48   100    1
