@<TRIPOS>MOLECULE
IMPHY012912
 39 40 0 0 0
SMALL
GASTEIGER

@<TRIPOS>ATOM
      1 C           3.7320   -0.2500    0.0000 C.3     1  UNL1       -0.0275
      2 C           2.8660   -0.7500    0.0000 C.3     1  UNL1       -0.0316
      3 C           3.7320    0.7500    0.0000 C.3     1  UNL1       -0.0165
      4 C           4.6260   -0.7847    0.0000 C.3     1  UNL1       -0.0283
      5 C           4.6260    1.2847    0.0000 C.3     1  UNL1       -0.0426
      6 C           2.0000   -0.2500    0.0000 C.3     1  UNL1       -0.0312
      7 C           2.8660   -1.7500    0.0000 C.3     1  UNL1       -0.0433
      8 C           2.8660    1.2500    0.0000 C.2     1  UNL1       -0.0731
      9 C           5.5321    0.7708    0.0000 C.3     1  UNL1       -0.0314
     10 C           5.5321   -0.2708    0.0000 C.2     1  UNL1       -0.0763
     11 C           2.0000    0.7500    0.0000 C.2     1  UNL1       -0.0845
     12 C           2.0000   -2.2500    0.0000 C.3     1  UNL1       -0.0624
     13 C           3.7320   -2.2500    0.0000 C.3     1  UNL1       -0.0624
     14 C           2.8660    2.2500    0.0000 C.3     1  UNL1       -0.0435
     15 C           6.3961   -0.7742    0.0000 C.2     1  UNL1       -0.0994
     16 H           3.7273   -0.8700    0.0000 H       1  UNL1        0.0312
     17 H           2.3291   -1.0600    0.0000 H       1  UNL1        0.0309
     18 H           3.7273    1.3700    0.0000 H       1  UNL1        0.0348
     19 H           4.2214   -1.2544    0.0000 H       1  UNL1        0.0313
     20 H           5.0196   -1.2637    0.0000 H       1  UNL1        0.0313
     21 H           5.0196    1.7637    0.0000 H       1  UNL1        0.0274
     22 H           4.2214    1.7544    0.0000 H       1  UNL1        0.0274
     23 H           1.3894   -0.1423    0.0000 H       1  UNL1        0.0310
     24 H           1.7880   -0.8326    0.0000 H       1  UNL1        0.0310
     25 H           2.8660   -2.3700    0.0000 H       1  UNL1        0.0298
     26 H           6.1429    0.6647    0.0000 H       1  UNL1        0.0310
     27 H           5.7411    1.3545    0.0000 H       1  UNL1        0.0310
     28 H           1.4631    1.0600    0.0000 H       1  UNL1        0.0572
     29 H           1.6900   -1.7131    0.0000 H       1  UNL1        0.0232
     30 H           1.4631   -2.5600    0.0000 H       1  UNL1        0.0232
     31 H           2.3100   -2.7869    0.0000 H       1  UNL1        0.0232
     32 H           3.4220   -2.7869    0.0000 H       1  UNL1        0.0232
     33 H           4.2690   -2.5600    0.0000 H       1  UNL1        0.0232
     34 H           4.0420   -1.7131    0.0000 H       1  UNL1        0.0232
     35 H           3.4860    2.2500    0.0000 H       1  UNL1        0.0274
     36 H           2.8660    2.8700    0.0000 H       1  UNL1        0.0274
     37 H           2.2460    2.2500    0.0000 H       1  UNL1        0.0274
     38 H           6.3938   -1.3942    0.0000 H       1  UNL1        0.0534
     39 H           6.9343   -0.4662    0.0000 H       1  UNL1        0.0534
@<TRIPOS>BOND
     1     1     2    1
     2     1     3    1
     3     1     4    1
     4     1    16    1
     5     2     6    1
     6     2     7    1
     7     2    17    1
     8     3     5    1
     9     3     8    1
    10     3    18    1
    11     4    10    1
    12     4    19    1
    13     4    20    1
    14     5     9    1
    15     5    21    1
    16     5    22    1
    17     6    11    1
    18     6    23    1
    19     6    24    1
    20     7    12    1
    21     7    13    1
    22     7    25    1
    23     8    11    2
    24     8    14    1
    25     9    10    1
    26     9    26    1
    27     9    27    1
    28    10    15    2
    29    11    28    1
    30    12    29    1
    31    12    30    1
    32    12    31    1
    33    13    32    1
    34    13    33    1
    35    13    34    1
    36    14    35    1
    37    14    36    1
    38    14    37    1
    39    15    38    1
    40    15    39    1
