@<TRIPOS>MOLECULE
IMPHY011365
 48 52 0 0 0
SMALL
GASTEIGER

@<TRIPOS>ATOM
      1 O           5.6259   -1.8298    0.0000 O.3     1  UNL1       -0.3536
      2 O           6.8854    0.5638    0.0000 O.3     1  UNL1       -0.4589
      3 O           2.2287    1.8150    0.0000 O.3     1  UNL1       -0.3918
      4 O           7.4447   -1.0347    0.0000 O.2     1  UNL1       -0.2475
      5 O           5.1743    4.0306    0.0000 O.3     1  UNL1       -0.4804
      6 O           6.5159    2.9351    0.0000 O.2     1  UNL1       -0.2507
      7 O           3.9966   -4.5108    0.0000 O.2     1  UNL1       -0.4707
      8 C           4.8609   -0.4112    0.0000 C.3     1  UNL1        0.0135
      9 C           4.6384    0.5638    0.0000 C.3     1  UNL1       -0.0231
     10 C           5.7619   -0.8451    0.0000 C.3     1  UNL1        0.1751
     11 C           5.2619    1.3456    0.0000 C.3     1  UNL1        0.0127
     12 C           6.2619    1.3456    0.0000 C.3     1  UNL1        0.1102
     13 C           5.6551    0.3317    0.0000 C.3     1  UNL1        0.0248
     14 C           4.1758   -1.1315    0.0000 C.3     1  UNL1       -0.0134
     15 C           3.6062    0.7031    0.0000 C.3     1  UNL1       -0.0230
     16 C           4.8964    2.3210    0.0000 C.3     1  UNL1        0.0650
     17 C           4.6476   -2.0064    0.0000 C.3     1  UNL1        0.0886
     18 C           3.8659   -0.3116    0.0000 C.3     1  UNL1       -0.0560
     19 C           6.6629   -0.4112    0.0000 C.2     1  UNL1        0.3404
     20 C           3.2181    1.6698    0.0000 C.3     1  UNL1        0.0563
     21 C           3.8676    2.4842    0.0000 C.3     1  UNL1       -0.0135
     22 C           5.5288    3.0955    0.0000 C.2     1  UNL1        0.3083
     23 C           4.2138   -2.9074    0.0000 C.ar    1  UNL1        0.0188
     24 C           3.2298   -3.0860    0.0000 C.ar    1  UNL1       -0.0183
     25 C           4.6876   -3.7880    0.0000 C.ar    1  UNL1        0.0973
     26 C           3.0956   -4.0769    0.0000 C.ar    1  UNL1        0.0920
     27 H           3.9131    0.1205    0.0000 H       1  UNL1        0.0312
     28 H           5.7919    2.0101    0.0000 H       1  UNL1        0.0347
     29 H           6.4511    2.1743    0.0000 H       1  UNL1        0.0738
     30 H           5.2473    0.7987    0.0000 H       1  UNL1        0.0335
     31 H           5.0850    0.0879    0.0000 H       1  UNL1        0.0335
     32 H           3.7740   -0.6593    0.0000 H       1  UNL1        0.0300
     33 H           3.6641   -1.4815    0.0000 H       1  UNL1        0.0300
     34 H           2.9997    0.5740    0.0000 H       1  UNL1        0.0293
     35 H           3.6296    0.0835    0.0000 H       1  UNL1        0.0293
     36 H           5.5081    2.2203    0.0000 H       1  UNL1        0.0418
     37 H           4.0278   -2.0206    0.0000 H       1  UNL1        0.0648
     38 H           3.9276    0.3053    0.0000 H       1  UNL1        0.0236
     39 H           3.2490   -0.2499    0.0000 H       1  UNL1        0.0236
     40 H           3.8042   -0.9285    0.0000 H       1  UNL1        0.0236
     41 H           2.9905    2.2465    0.0000 H       1  UNL1        0.0593
     42 H           4.0681    3.0708    0.0000 H       1  UNL1        0.0298
     43 H           3.3238    2.7821    0.0000 H       1  UNL1        0.0298
     44 H           2.0000    2.3913    0.0000 H       1  UNL1        0.2098
     45 H           2.7817   -2.6575    0.0000 H       1  UNL1        0.0652
     46 H           5.3020   -3.8712    0.0000 H       1  UNL1        0.1033
     47 H           5.5664    4.5108    0.0000 H       1  UNL1        0.2951
     48 H           2.5496   -4.3707    0.0000 H       1  UNL1        0.1029
@<TRIPOS>BOND
     1    10     1    1
     2     1    17    1
     3     2    12    1
     4     2    19    1
     5    20     3    1
     6     3    44    1
     7     4    19    2
     8     5    22    1
     9     5    47    1
    10     6    22    2
    11     7    25   ar
    12     7    26   ar
    13     8     9    1
    14     8    10    1
    15     8    14    1
    16     8    18    1
    17     9    11    1
    18     9    15    1
    19     9    27    1
    20    10    13    1
    21    10    19    1
    22    11    12    1
    23    11    16    1
    24    11    28    1
    25    12    13    1
    26    12    29    1
    27    13    30    1
    28    13    31    1
    29    14    17    1
    30    14    32    1
    31    14    33    1
    32    15    20    1
    33    15    34    1
    34    15    35    1
    35    16    21    1
    36    16    22    1
    37    16    36    1
    38    17    23    1
    39    17    37    1
    40    18    38    1
    41    18    39    1
    42    18    40    1
    43    20    21    1
    44    20    41    1
    45    21    42    1
    46    21    43    1
    47    23    24   ar
    48    23    25   ar
    49    24    26   ar
    50    24    45    1
    51    25    46    1
    52    26    48    1
