@<TRIPOS>MOLECULE
IMPHY006599
 20 20 0 0 0
SMALL
GASTEIGER

@<TRIPOS>ATOM
      1 O           4.2690    1.8450    0.0000 O.3     1  UNL1       -0.5033
      2 O           2.5369    0.8450    0.0000 O.3     1  UNL1       -0.5033
      3 C           5.1350   -0.6550    0.0000 C.ar    1  UNL1       -0.0439
      4 C           6.0010   -1.1550    0.0000 C.3     1  UNL1       -0.0304
      5 C           5.1350    0.3450    0.0000 C.ar    1  UNL1       -0.0134
      6 C           4.2690   -1.1550    0.0000 C.ar    1  UNL1       -0.0549
      7 C           4.2690    0.8450    0.0000 C.ar    1  UNL1        0.1585
      8 C           6.0010   -2.1550    0.0000 C.3     1  UNL1       -0.0613
      9 C           3.4030   -0.6550    0.0000 C.ar    1  UNL1       -0.0163
     10 C           3.4030    0.3450    0.0000 C.ar    1  UNL1        0.1582
     11 H           6.6116   -1.2627    0.0000 H       1  UNL1        0.0311
     12 H           6.2131   -0.5724    0.0000 H       1  UNL1        0.0311
     13 H           5.6720    0.6550    0.0000 H       1  UNL1        0.0658
     14 H           4.2690   -1.7750    0.0000 H       1  UNL1        0.0621
     15 H           5.3810   -2.1550    0.0000 H       1  UNL1        0.0233
     16 H           6.0010   -2.7750    0.0000 H       1  UNL1        0.0233
     17 H           6.6210   -2.1550    0.0000 H       1  UNL1        0.0233
     18 H           2.8660   -0.9650    0.0000 H       1  UNL1        0.0655
     19 H           4.8059    2.1550    0.0000 H       1  UNL1        0.2923
     20 H           2.0000    0.5350    0.0000 H       1  UNL1        0.2923
@<TRIPOS>BOND
     1     1     7    1
     2     1    19    1
     3     2    10    1
     4     2    20    1
     5     3     4    1
     6     3     5   ar
     7     3     6   ar
     8     4     8    1
     9     4    11    1
    10     4    12    1
    11     5     7   ar
    12     5    13    1
    13     6     9   ar
    14     6    14    1
    15     7    10   ar
    16     8    15    1
    17     8    16    1
    18     8    17    1
    19     9    10   ar
    20     9    18    1
