@<TRIPOS>MOLECULE
IMPHY014122
 52 51 0 0 0
SMALL
GASTEIGER

@<TRIPOS>ATOM
      1 O           2.5369    0.4400    0.0000 O.3     1  UNL1       -0.4806
      2 O           3.4030   -1.0600    0.0000 O.2     1  UNL1       -0.2510
      3 C           6.8671   -0.0600    0.0000 C.3     1  UNL1       -0.0530
      4 C           7.7331    0.4400    0.0000 C.3     1  UNL1       -0.0528
      5 C           6.0010    0.4400    0.0000 C.3     1  UNL1       -0.0526
      6 C           8.5991   -0.0600    0.0000 C.3     1  UNL1       -0.0496
      7 C           5.1350   -0.0600    0.0000 C.3     1  UNL1       -0.0430
      8 C           9.4651    0.4400    0.0000 C.3     1  UNL1       -0.0348
      9 C          12.9292    0.4400    0.0000 C.3     1  UNL1       -0.0493
     10 C          12.0632   -0.0600    0.0000 C.3     1  UNL1       -0.0348
     11 C           4.2690    0.4400    0.0000 C.3     1  UNL1        0.0448
     12 C          13.7953   -0.0600    0.0000 C.3     1  UNL1       -0.0493
     13 C          10.3312   -0.0600    0.0000 C.2     1  UNL1       -0.0879
     14 C          11.1972    0.4400    0.0000 C.2     1  UNL1       -0.0879
     15 C          14.6613    0.4400    0.0000 C.3     1  UNL1       -0.0348
     16 C           3.4030   -0.0600    0.0000 C.2     1  UNL1        0.3047
     17 C          15.5273   -0.0600    0.0000 C.2     1  UNL1       -0.0879
     18 C          16.3933    0.4400    0.0000 C.2     1  UNL1       -0.0882
     19 C          17.2594   -0.0600    0.0000 C.3     1  UNL1       -0.0376
     20 C          18.1254    0.4400    0.0000 C.3     1  UNL1       -0.0618
     21 H           6.4685   -0.5349    0.0000 H       1  UNL1        0.0265
     22 H           7.2656   -0.5349    0.0000 H       1  UNL1        0.0265
     23 H           8.1316    0.9149    0.0000 H       1  UNL1        0.0265
     24 H           7.3346    0.9149    0.0000 H       1  UNL1        0.0265
     25 H           6.3996    0.9149    0.0000 H       1  UNL1        0.0265
     26 H           5.6025    0.9149    0.0000 H       1  UNL1        0.0265
     27 H           8.2006   -0.5349    0.0000 H       1  UNL1        0.0268
     28 H           8.9976   -0.5349    0.0000 H       1  UNL1        0.0268
     29 H           4.7365   -0.5349    0.0000 H       1  UNL1        0.0270
     30 H           5.5335   -0.5349    0.0000 H       1  UNL1        0.0270
     31 H           9.8637    0.9149    0.0000 H       1  UNL1        0.0307
     32 H           9.0666    0.9149    0.0000 H       1  UNL1        0.0307
     33 H          13.3278    0.9149    0.0000 H       1  UNL1        0.0268
     34 H          12.5307    0.9149    0.0000 H       1  UNL1        0.0268
     35 H          11.6647   -0.5349    0.0000 H       1  UNL1        0.0307
     36 H          12.4617   -0.5349    0.0000 H       1  UNL1        0.0307
     37 H           4.6675    0.9149    0.0000 H       1  UNL1        0.0377
     38 H           3.8705    0.9149    0.0000 H       1  UNL1        0.0377
     39 H          13.3967   -0.5349    0.0000 H       1  UNL1        0.0268
     40 H          14.1938   -0.5349    0.0000 H       1  UNL1        0.0268
     41 H          10.3312   -0.6800    0.0000 H       1  UNL1        0.0569
     42 H          11.1972    1.0600    0.0000 H       1  UNL1        0.0569
     43 H          15.0598    0.9149    0.0000 H       1  UNL1        0.0307
     44 H          14.2628    0.9149    0.0000 H       1  UNL1        0.0307
     45 H          15.5273   -0.6800    0.0000 H       1  UNL1        0.0569
     46 H          16.3933    1.0600    0.0000 H       1  UNL1        0.0569
     47 H          16.8608   -0.5349    0.0000 H       1  UNL1        0.0305
     48 H          17.6579   -0.5349    0.0000 H       1  UNL1        0.0305
     49 H           2.0000    0.1300    0.0000 H       1  UNL1        0.2951
     50 H          18.4354   -0.0969    0.0000 H       1  UNL1        0.0233
     51 H          18.6623    0.7500    0.0000 H       1  UNL1        0.0233
     52 H          17.8154    0.9769    0.0000 H       1  UNL1        0.0233
@<TRIPOS>BOND
     1     1    16    1
     2     1    49    1
     3     2    16    2
     4     3     4    1
     5     3     5    1
     6     3    21    1
     7     3    22    1
     8     4     6    1
     9     4    23    1
    10     4    24    1
    11     5     7    1
    12     5    25    1
    13     5    26    1
    14     6     8    1
    15     6    27    1
    16     6    28    1
    17     7    11    1
    18     7    29    1
    19     7    30    1
    20     8    13    1
    21     8    31    1
    22     8    32    1
    23     9    10    1
    24     9    12    1
    25     9    33    1
    26     9    34    1
    27    10    14    1
    28    10    35    1
    29    10    36    1
    30    11    16    1
    31    11    37    1
    32    11    38    1
    33    12    15    1
    34    12    39    1
    35    12    40    1
    36    13    14    2
    37    13    41    1
    38    14    42    1
    39    15    17    1
    40    15    43    1
    41    15    44    1
    42    17    18    2
    43    17    45    1
    44    18    19    1
    45    18    46    1
    46    19    20    1
    47    19    47    1
    48    19    48    1
    49    20    50    1
    50    20    51    1
    51    20    52    1
