@<TRIPOS>MOLECULE
IMPHY016920
 53 54 0 0 0
SMALL
GASTEIGER

@<TRIPOS>ATOM
      1 O           7.7331    1.6550    0.0000 O.3     1  UNL1       -0.3914
      2 O           8.5991    0.1550    0.0000 O.2     1  UNL1       -0.2973
      3 O           4.2690    5.6550    0.0000 O.3     1  UNL1       -0.4915
      4 O           6.8671   -4.8450    0.0000 O.3     1  UNL1       -0.4915
      5 O           2.5369    4.6550    0.0000 O.3     1  UNL1       -0.5033
      6 O           8.5991   -5.8450    0.0000 O.3     1  UNL1       -0.5033
      7 C           6.8671    1.1550    0.0000 C.3     1  UNL1        0.0622
      8 C           6.0010    1.6550    0.0000 C.3     1  UNL1       -0.0225
      9 C           6.8671    0.1550    0.0000 C.3     1  UNL1        0.0319
     10 C           6.0010    2.6550    0.0000 C.3     1  UNL1       -0.0252
     11 C           7.7331   -0.3450    0.0000 C.2     1  UNL1        0.1361
     12 C           7.7331   -1.3450    0.0000 C.3     1  UNL1        0.0099
     13 C           5.1350    3.1550    0.0000 C.ar    1  UNL1       -0.0436
     14 C           8.5991   -1.8450    0.0000 C.3     1  UNL1       -0.0209
     15 C           8.5991   -2.8450    0.0000 C.ar    1  UNL1       -0.0433
     16 C           5.1350    4.1550    0.0000 C.ar    1  UNL1       -0.0131
     17 C           4.2690    2.6550    0.0000 C.ar    1  UNL1       -0.0549
     18 C           7.7331   -3.3450    0.0000 C.ar    1  UNL1       -0.0131
     19 C           4.2690    4.6550    0.0000 C.ar    1  UNL1        0.1615
     20 C           9.4651   -3.3450    0.0000 C.ar    1  UNL1       -0.0549
     21 C           3.4030    3.1550    0.0000 C.ar    1  UNL1       -0.0163
     22 C           3.4030    4.1550    0.0000 C.ar    1  UNL1        0.1585
     23 C           7.7331   -4.3450    0.0000 C.ar    1  UNL1        0.1615
     24 C           9.4651   -4.3450    0.0000 C.ar    1  UNL1       -0.0163
     25 C           8.5991   -4.8450    0.0000 C.ar    1  UNL1        0.1585
     26 C           5.1350    6.1550    0.0000 C.3     1  UNL1        0.0790
     27 C           6.0010   -4.3450    0.0000 C.3     1  UNL1        0.0790
     28 H           7.4040    0.8450    0.0000 H       1  UNL1        0.0597
     29 H           5.3905    1.7627    0.0000 H       1  UNL1        0.0293
     30 H           5.7890    1.0724    0.0000 H       1  UNL1        0.0293
     31 H           6.2565    0.2627    0.0000 H       1  UNL1        0.0367
     32 H           6.6550   -0.4276    0.0000 H       1  UNL1        0.0367
     33 H           6.6116    2.5473    0.0000 H       1  UNL1        0.0314
     34 H           6.2131    3.2376    0.0000 H       1  UNL1        0.0314
     35 H           7.1225   -1.2373    0.0000 H       1  UNL1        0.0345
     36 H           7.5210   -1.9276    0.0000 H       1  UNL1        0.0345
     37 H           9.2097   -1.9527    0.0000 H       1  UNL1        0.0317
     38 H           8.8112   -1.2624    0.0000 H       1  UNL1        0.0317
     39 H           8.2700    1.3450    0.0000 H       1  UNL1        0.2098
     40 H           5.6720    4.4650    0.0000 H       1  UNL1        0.0658
     41 H           4.2690    2.0350    0.0000 H       1  UNL1        0.0621
     42 H           7.1962   -3.0350    0.0000 H       1  UNL1        0.0658
     43 H          10.0021   -3.0350    0.0000 H       1  UNL1        0.0621
     44 H           2.8660    2.8450    0.0000 H       1  UNL1        0.0655
     45 H          10.0021   -4.6550    0.0000 H       1  UNL1        0.0655
     46 H           2.0000    4.3450    0.0000 H       1  UNL1        0.2923
     47 H           5.4450    5.6181    0.0000 H       1  UNL1        0.0660
     48 H           5.6720    6.4650    0.0000 H       1  UNL1        0.0660
     49 H           4.8250    6.6919    0.0000 H       1  UNL1        0.0660
     50 H           9.1360   -6.1550    0.0000 H       1  UNL1        0.2923
     51 H           6.3110   -3.8081    0.0000 H       1  UNL1        0.0660
     52 H           5.4641   -4.0350    0.0000 H       1  UNL1        0.0660
     53 H           5.6910   -4.8819    0.0000 H       1  UNL1        0.0660
@<TRIPOS>BOND
     1     1     7    1
     2     1    39    1
     3     2    11    2
     4     3    19    1
     5     3    26    1
     6     4    23    1
     7     4    27    1
     8     5    22    1
     9     5    46    1
    10     6    25    1
    11     6    50    1
    12     7     8    1
    13     7     9    1
    14     7    28    1
    15     8    10    1
    16     8    29    1
    17     8    30    1
    18     9    11    1
    19     9    31    1
    20     9    32    1
    21    10    13    1
    22    10    33    1
    23    10    34    1
    24    11    12    1
    25    12    14    1
    26    12    35    1
    27    12    36    1
    28    13    16   ar
    29    13    17   ar
    30    14    15    1
    31    14    37    1
    32    14    38    1
    33    15    18   ar
    34    15    20   ar
    35    16    19   ar
    36    16    40    1
    37    17    21   ar
    38    17    41    1
    39    18    23   ar
    40    18    42    1
    41    19    22   ar
    42    20    24   ar
    43    20    43    1
    44    21    22   ar
    45    21    44    1
    46    23    25   ar
    47    24    25   ar
    48    24    45    1
    49    26    47    1
    50    26    48    1
    51    26    49    1
    52    27    51    1
    53    27    52    1
    54    27    53    1
