@<TRIPOS>MOLECULE
IMPHY014266
 38 39 0 0 0
SMALL
GASTEIGER

@<TRIPOS>ATOM
      1 O           2.8660    2.0000    0.0000 O.2     2  PHE2       -0.2654
      2 O           6.3301    0.0000    0.0000 O.2     1  LEU1       -0.2657
      3 N           4.5981    2.0000    0.0000 N.ar    1  LEU1       -0.3057
      4 N           4.5981    0.0000    0.0000 N.ar    2  PHE2       -0.3166
      5 CG          7.1962    1.5000    0.0000 C.3     1  LEU1       -0.0262
      6 CA          5.4641    1.5000    0.0000 C.ar    1  LEU1        0.1058
      7 CB          6.3301    2.0000    0.0000 C.2     1  LEU1       -0.0525
      8 CA          3.7320    0.5000    0.0000 C.ar    2  PHE2        0.1079
      9 C           3.7320    1.5000    0.0000 C.ar    2  PHE2        0.2751
     10 C           5.4641    0.5000    0.0000 C.ar    1  LEU1        0.2727
     11 CD1         8.0622    2.0000    0.0000 C.3     1  LEU1       -0.0591
     12 CD2         7.1962    0.5000    0.0000 C.3     1  LEU1       -0.0591
     13 C           4.5981    3.0000    0.0000 C.3     0  UNK0        0.0155
     14 CB          2.8660   -0.0000    0.0000 C.2     2  PHE2       -0.0258
     15 CG          2.8660   -1.0000    0.0000 C.ar    2  PHE2       -0.0229
     16 CD1         2.0000   -1.5000    0.0000 C.ar    2  PHE2       -0.0545
     17 CD2         3.7320   -1.5000    0.0000 C.ar    2  PHE2       -0.0545
     18 CE1         2.0000   -2.5000    0.0000 C.ar    2  PHE2       -0.0612
     19 CE2         3.7320   -2.5000    0.0000 C.ar    2  PHE2       -0.0612
     20 CZ          2.8660   -3.0000    0.0000 C.ar    2  PHE2       -0.0617
     21 HG          6.6592    1.1900    0.0000 H       1  LEU1        0.0338
     22 HB          6.3301    2.6200    0.0000 H       1  LEU1        0.0597
     23 HD11        8.3722    1.4631    0.0000 H       1  LEU1        0.0235
     24 HD12        8.5991    2.3100    0.0000 H       1  LEU1        0.0235
     25 HD13        7.7522    2.5369    0.0000 H       1  LEU1        0.0235
     26 HD21        6.5762    0.5000    0.0000 H       1  LEU1        0.0235
     27 HD22        7.1962   -0.1200    0.0000 H       1  LEU1        0.0235
     28 HD23        7.8162    0.5000    0.0000 H       1  LEU1        0.0235
     29 H           4.5981   -0.6200    0.0000 H       2  PHE2        0.1691
     30 H           5.2181    3.0000    0.0000 H       0  UNK0        0.0457
     31 H           4.5981    3.6200    0.0000 H       0  UNK0        0.0457
     32 H           3.9781    3.0000    0.0000 H       0  UNK0        0.0457
     33 HB          2.3291    0.3100    0.0000 H       2  PHE2        0.0646
     34 HD1         1.4631   -1.1900    0.0000 H       2  PHE2        0.0623
     35 HD2         4.2690   -1.1900    0.0000 H       2  PHE2        0.0623
     36 HE1         1.4631   -2.8100    0.0000 H       2  PHE2        0.0618
     37 HE2         4.2690   -2.8100    0.0000 H       2  PHE2        0.0618
     38 HZ          2.8660   -3.6200    0.0000 H       2  PHE2        0.0618
@<TRIPOS>BOND
     1     1     9    2
     2     2    10    2
     3     3     6   ar
     4     3     9   ar
     5     3    13    1
     6     4     8   ar
     7     4    10   ar
     8     4    29    1
     9     5     7    1
    10     5    11    1
    11     5    12    1
    12     5    21    1
    13     6     7    2
    14     6    10   ar
    15     7    22    1
    16     8     9   ar
    17     8    14    2
    18    11    23    1
    19    11    24    1
    20    11    25    1
    21    12    26    1
    22    12    27    1
    23    12    28    1
    24    13    30    1
    25    13    31    1
    26    13    32    1
    27    14    15    1
    28    14    33    1
    29    15    16   ar
    30    15    17   ar
    31    16    18   ar
    32    16    34    1
    33    17    19   ar
    34    17    35    1
    35    18    20   ar
    36    18    36    1
    37    19    20   ar
    38    19    37    1
    39    20    38    1
