@<TRIPOS>MOLECULE
IMPHY015263
 30 30 0 0 0
SMALL
GASTEIGER

@<TRIPOS>ATOM
      1 O           2.8090    1.0219    0.0000 O.2     1  UNL1       -0.4678
      2 C           5.7281    0.0135    0.0000 C.3     1  UNL1       -0.0527
      3 C           5.9360   -0.9646    0.0000 C.3     1  UNL1       -0.0531
      4 C           4.7770    0.3226    0.0000 C.3     1  UNL1       -0.0462
      5 C           6.8870   -1.2736    0.0000 C.3     1  UNL1       -0.0533
      6 C           4.5691    1.3007    0.0000 C.3     1  UNL1        0.0055
      7 C           7.0949   -2.2518    0.0000 C.3     1  UNL1       -0.0559
      8 C           3.6180    1.6097    0.0000 C.ar    1  UNL1        0.1049
      9 C           8.0460   -2.5608    0.0000 C.3     1  UNL1       -0.0653
     10 C           3.3090    2.5608    0.0000 C.ar    1  UNL1       -0.0207
     11 C           2.3090    2.5608    0.0000 C.ar    1  UNL1       -0.0237
     12 C           2.0000    1.6097    0.0000 C.ar    1  UNL1        0.0921
     13 H           6.3477    0.0352    0.0000 H       1  UNL1        0.0265
     14 H           5.8144    0.6275    0.0000 H       1  UNL1        0.0265
     15 H           5.3164   -0.9862    0.0000 H       1  UNL1        0.0265
     16 H           5.8497   -1.5786    0.0000 H       1  UNL1        0.0265
     17 H           4.1574    0.3009    0.0000 H       1  UNL1        0.0269
     18 H           4.6907   -0.2914    0.0000 H       1  UNL1        0.0269
     19 H           7.5066   -1.2520    0.0000 H       1  UNL1        0.0265
     20 H           6.9733   -0.6597    0.0000 H       1  UNL1        0.0265
     21 H           5.1887    1.3224    0.0000 H       1  UNL1        0.0343
     22 H           4.6554    1.9147    0.0000 H       1  UNL1        0.0343
     23 H           6.4753   -2.2734    0.0000 H       1  UNL1        0.0263
     24 H           7.0086   -2.8657    0.0000 H       1  UNL1        0.0263
     25 H           7.8544   -3.1504    0.0000 H       1  UNL1        0.0230
     26 H           8.6356   -2.7524    0.0000 H       1  UNL1        0.0230
     27 H           8.2376   -1.9711    0.0000 H       1  UNL1        0.0230
     28 H           3.6734    3.0624    0.0000 H       1  UNL1        0.0652
     29 H           1.9446    3.0624    0.0000 H       1  UNL1        0.0649
     30 H           1.4103    1.4181    0.0000 H       1  UNL1        0.1029
@<TRIPOS>BOND
     1     1     8   ar
     2     1    12   ar
     3     2     3    1
     4     2     4    1
     5     2    13    1
     6     2    14    1
     7     3     5    1
     8     3    15    1
     9     3    16    1
    10     4     6    1
    11     4    17    1
    12     4    18    1
    13     5     7    1
    14     5    19    1
    15     5    20    1
    16     6     8    1
    17     6    21    1
    18     6    22    1
    19     7     9    1
    20     7    23    1
    21     7    24    1
    22     8    10   ar
    23     9    25    1
    24     9    26    1
    25     9    27    1
    26    10    11   ar
    27    10    28    1
    28    11    12   ar
    29    11    29    1
    30    12    30    1
