@<TRIPOS>MOLECULE
IMPHY006071
 72 76 0 0 0
SMALL
GASTEIGER

@<TRIPOS>ATOM
      1 O           7.7331    0.5000    0.0000 O.3     1  UNL1       -0.3313
      2 O           4.2690   -0.5000    0.0000 O.3     1  UNL1       -0.3405
      3 O           6.0010   -0.5000    0.0000 O.3     1  UNL1       -0.3460
      4 O           6.0010    2.5000    0.0000 O.3     1  UNL1       -0.3865
      5 O           9.4651    0.5000    0.0000 O.3     1  UNL1       -0.4600
      6 O           7.7331    3.5000    0.0000 O.3     1  UNL1       -0.3864
      7 O           6.0010   -2.5000    0.0000 O.3     1  UNL1       -0.3841
      8 O           9.4651    2.5000    0.0000 O.3     1  UNL1       -0.3829
      9 O           4.2690   -3.5000    0.0000 O.3     1  UNL1       -0.3864
     10 O           2.5369   -2.5000    0.0000 O.3     1  UNL1       -0.3865
     11 O           2.5369    0.5000    0.0000 O.3     1  UNL1       -0.3924
     12 O          12.9672    0.4626    0.0000 O.2     1  UNL1       -0.4506
     13 O          13.0125    2.4937    0.0000 O.3     1  UNL1       -0.5033
     14 O          10.3519   -1.0072    0.0000 O.2     1  UNL1       -0.2861
     15 O          11.1784   -2.5483    0.0000 O.3     1  UNL1       -0.5058
     16 O          14.7178   -2.6029    0.0000 O.3     1  UNL1       -0.4949
     17 C           6.8671    1.0000    0.0000 C.3     1  UNL1        0.1144
     18 C           6.8671    2.0000    0.0000 C.3     1  UNL1        0.1120
     19 C           7.7331    2.5000    0.0000 C.3     1  UNL1        0.1152
     20 C           5.1350   -2.0000    0.0000 C.3     1  UNL1        0.1341
     21 C           8.5991    2.0000    0.0000 C.3     1  UNL1        0.1454
     22 C           4.2690   -2.5000    0.0000 C.3     1  UNL1        0.1141
     23 C           5.1350   -1.0000    0.0000 C.3     1  UNL1        0.1880
     24 C           3.4030   -2.0000    0.0000 C.3     1  UNL1        0.1119
     25 C           3.4030   -1.0000    0.0000 C.3     1  UNL1        0.1130
     26 C           8.5991    1.0000    0.0000 C.3     1  UNL1        0.2308
     27 C           6.0010    0.5000    0.0000 C.3     1  UNL1        0.0796
     28 C           2.5369   -0.5000    0.0000 C.3     1  UNL1        0.0730
     29 C          10.3312    1.0000    0.0000 C.ar    1  UNL1        0.1386
     30 C          11.2352    0.4827    0.0000 C.ar    1  UNL1        0.1100
     31 C          10.3352    2.0416    0.0000 C.ar    1  UNL1       -0.0154
     32 C          12.1070    0.9726    0.0000 C.ar    1  UNL1        0.1839
     33 C          11.2237   -0.5173    0.0000 C.ar    1  UNL1        0.2074
     34 C          11.2432    2.5520    0.0000 C.ar    1  UNL1       -0.0130
     35 C          12.1351    2.0139    0.0000 C.ar    1  UNL1        0.1600
     36 C          12.0839   -1.0272    0.0000 C.ar    1  UNL1        0.1062
     37 C          12.9556   -0.5373    0.0000 C.ar    1  UNL1        0.1464
     38 C          12.0558   -2.0685    0.0000 C.ar    1  UNL1        0.1347
     39 C          13.8597   -1.0546    0.0000 C.ar    1  UNL1        0.0233
     40 C          12.9476   -2.6066    0.0000 C.ar    1  UNL1        0.0225
     41 C          13.8557   -2.0962    0.0000 C.ar    1  UNL1        0.1271
     42 C          14.7101   -3.6029    0.0000 C.3     1  UNL1        0.0788
     43 H           6.8671    0.3800    0.0000 H       1  UNL1        0.0647
     44 H           6.3301    1.6900    0.0000 H       1  UNL1        0.0647
     45 H           7.1962    2.8100    0.0000 H       1  UNL1        0.0648
     46 H           5.1350   -2.6200    0.0000 H       1  UNL1        0.0671
     47 H           8.5991    2.6200    0.0000 H       1  UNL1        0.0683
     48 H           3.7320   -2.8100    0.0000 H       1  UNL1        0.0648
     49 H           5.1350   -0.3800    0.0000 H       1  UNL1        0.0937
     50 H           2.8660   -1.6900    0.0000 H       1  UNL1        0.0647
     51 H           3.4030   -0.3800    0.0000 H       1  UNL1        0.0647
     52 H           8.5991    0.3800    0.0000 H       1  UNL1        0.1084
     53 H           5.7890    1.0826    0.0000 H       1  UNL1        0.0587
     54 H           5.3905    0.3923    0.0000 H       1  UNL1        0.0587
     55 H           1.9264   -0.3923    0.0000 H       1  UNL1        0.0584
     56 H           2.3249   -1.0826    0.0000 H       1  UNL1        0.0584
     57 H           5.4641    2.1900    0.0000 H       1  UNL1        0.2100
     58 H           7.1962    3.8100    0.0000 H       1  UNL1        0.2100
     59 H           6.5380   -2.1900    0.0000 H       1  UNL1        0.2101
     60 H           9.4651    3.1200    0.0000 H       1  UNL1        0.2102
     61 H           3.7320   -3.8100    0.0000 H       1  UNL1        0.2100
     62 H           2.0000   -2.1900    0.0000 H       1  UNL1        0.2100
     63 H           2.0000    0.8100    0.0000 H       1  UNL1        0.2095
     64 H           9.8006    2.3558    0.0000 H       1  UNL1        0.0655
     65 H          11.2528    3.1719    0.0000 H       1  UNL1        0.0656
     66 H          14.3966   -0.7446    0.0000 H       1  UNL1        0.0691
     67 H          12.9381   -3.2265    0.0000 H       1  UNL1        0.0691
     68 H          13.0268    3.1135    0.0000 H       1  UNL1        0.2923
     69 H          11.1641   -3.1682    0.0000 H       1  UNL1        0.2922
     70 H          14.0901   -3.5981    0.0000 H       1  UNL1        0.0660
     71 H          14.7053   -4.2229    0.0000 H       1  UNL1        0.0660
     72 H          15.3301   -3.6077    0.0000 H       1  UNL1        0.0660
@<TRIPOS>BOND
     1     1    17    1
     2     1    26    1
     3     2    23    1
     4     2    25    1
     5    23     3    1
     6     3    27    1
     7    18     4    1
     8     4    57    1
     9    26     5    1
    10     5    29    1
    11    19     6    1
    12     6    58    1
    13    20     7    1
    14     7    59    1
    15    21     8    1
    16     8    60    1
    17    22     9    1
    18     9    61    1
    19    24    10    1
    20    10    62    1
    21    11    28    1
    22    11    63    1
    23    12    32   ar
    24    12    37   ar
    25    13    35    1
    26    13    68    1
    27    14    33    2
    28    15    38    1
    29    15    69    1
    30    16    41    1
    31    16    42    1
    32    17    18    1
    33    17    27    1
    34    17    43    1
    35    18    19    1
    36    18    44    1
    37    19    21    1
    38    19    45    1
    39    20    22    1
    40    20    23    1
    41    20    46    1
    42    21    26    1
    43    21    47    1
    44    22    24    1
    45    22    48    1
    46    23    49    1
    47    24    25    1
    48    24    50    1
    49    25    28    1
    50    25    51    1
    51    26    52    1
    52    27    53    1
    53    27    54    1
    54    28    55    1
    55    28    56    1
    56    29    30   ar
    57    29    31   ar
    58    30    32   ar
    59    30    33   ar
    60    31    34   ar
    61    31    64    1
    62    32    35   ar
    63    33    36   ar
    64    34    35   ar
    65    34    65    1
    66    36    37   ar
    67    36    38   ar
    68    37    39   ar
    69    38    40   ar
    70    39    41   ar
    71    39    66    1
    72    40    41   ar
    73    40    67    1
    74    42    70    1
    75    42    71    1
    76    42    72    1
