@<TRIPOS>MOLECULE
IMPHY006051
 59 64 0 0 0
SMALL
GASTEIGER

@<TRIPOS>ATOM
      1 O           4.6345    1.2427    0.0000 O.3     1  UNL1       -0.3572
      2 O           2.9102    0.2246    0.0000 O.3     1  UNL1       -0.3869
      3 O           2.6199   -1.4543    0.0000 O.3     1  UNL1       -0.3937
      4 N           4.9062    0.0237    0.0000 N.3     1  UNL1       -0.2744
      5 C           5.5083   -1.2754    0.0000 C.3     1  UNL1        0.0175
      6 C           4.6423   -0.7754    0.0000 C.3     1  UNL1       -0.0203
      7 C           4.6423    0.2246    0.0000 C.3     1  UNL1        0.0302
      8 C           6.3743   -0.7754    0.0000 C.3     1  UNL1       -0.0226
      9 C           5.5083    0.7246    0.0000 C.3     1  UNL1        0.0695
     10 C           3.7528    0.7382    0.0000 C.3     1  UNL1        0.1185
     11 C           7.2843   -1.2822    0.0000 C.3     1  UNL1       -0.0157
     12 C           6.3743    0.2246    0.0000 C.3     1  UNL1       -0.0219
     13 C           5.4922   -2.3169    0.0000 C.3     1  UNL1       -0.0432
     14 C           3.4368   -1.7090    0.0000 C.3     1  UNL1       -0.0423
     15 C           5.5083    0.7246    0.0000 C.3     1  UNL1       -0.0415
     16 C           3.7762    0.7246    0.0000 C.3     1  UNL1        0.0845
     17 C           4.6423    2.2246    0.0000 C.3     1  UNL1       -0.0174
     18 C           6.0839   -0.6500    0.0000 C.3     1  UNL1        0.0070
     19 C           7.2924   -2.3238    0.0000 C.3     1  UNL1       -0.0462
     20 C           5.5083    1.7246    0.0000 C.3     1  UNL1       -0.0457
     21 C           6.3903   -2.8446    0.0000 C.3     1  UNL1       -0.0519
     22 C           3.7762    1.7246    0.0000 C.2     1  UNL1       -0.0448
     23 C           8.1445   -0.7722    0.0000 C.3     1  UNL1       -0.0581
     24 C           4.1316   -0.6087    0.0000 C.3     1  UNL1        0.0244
     25 C           2.9102    2.2246    0.0000 C.2     1  UNL1       -0.0967
     26 C           3.1316   -0.5951    0.0000 C.3     1  UNL1        0.0570
     27 H           4.6423   -1.6254    0.0000 H       1  UNL1        0.0315
     28 H           7.1104   -0.3504    0.0000 H       1  UNL1        0.0314
     29 H           6.2444    1.1496    0.0000 H       1  UNL1        0.0603
     30 H           3.0242    1.1759    0.0000 H       1  UNL1        0.0775
     31 H           6.9849    0.1170    0.0000 H       1  UNL1        0.0293
     32 H           6.5864    0.8072    0.0000 H       1  UNL1        0.0293
     33 H           4.8831   -2.2014    0.0000 H       1  UNL1        0.0272
     34 H           5.2742   -2.8973    0.0000 H       1  UNL1        0.0272
     35 H           2.8169   -1.7223    0.0000 H       1  UNL1        0.0274
     36 H           3.6437   -2.2935    0.0000 H       1  UNL1        0.0274
     37 H           5.7203    0.1420    0.0000 H       1  UNL1        0.0273
     38 H           6.1189    0.8323    0.0000 H       1  UNL1        0.0273
     39 H           3.2393    1.0346    0.0000 H       1  UNL1        0.0647
     40 H           4.6423    3.0746    0.0000 H       1  UNL1        0.0346
     41 H           5.5518   -0.9683    0.0000 H       1  UNL1        0.0433
     42 H           6.3823   -0.1065    0.0000 H       1  UNL1        0.0433
     43 H           7.5059   -2.9059    0.0000 H       1  UNL1        0.0271
     44 H           7.9024   -2.2130    0.0000 H       1  UNL1        0.0271
     45 H           6.1189    1.6170    0.0000 H       1  UNL1        0.0271
     46 H           5.7203    2.3072    0.0000 H       1  UNL1        0.0271
     47 H           5.9893   -3.3175    0.0000 H       1  UNL1        0.0266
     48 H           6.7876   -3.3206    0.0000 H       1  UNL1        0.0266
     49 H           8.4607   -1.3056    0.0000 H       1  UNL1        0.0236
     50 H           8.6778   -0.4560    0.0000 H       1  UNL1        0.0236
     51 H           7.8283   -0.2389    0.0000 H       1  UNL1        0.0236
     52 H           3.9458   -1.2002    0.0000 H       1  UNL1        0.0450
     53 H           4.6449   -0.9563    0.0000 H       1  UNL1        0.0450
     54 H           2.3733    0.5346    0.0000 H       1  UNL1        0.2102
     55 H           2.9102    2.8446    0.0000 H       1  UNL1        0.0535
     56 H           2.3733    1.9146    0.0000 H       1  UNL1        0.0535
     57 H           3.2476    0.0140    0.0000 H       1  UNL1        0.0570
     58 H           2.5520   -0.3752    0.0000 H       1  UNL1        0.0570
     59 H           2.0000   -1.4458    0.0000 H       1  UNL1        0.2095
@<TRIPOS>BOND
     1     1     9    1
     2     1    10    1
     3    16     2    1
     4     2    54    1
     5     3    26    1
     6     3    59    1
     7     4    10    1
     8     4    18    1
     9     4    24    1
    10     5     6    1
    11     5     8    1
    12     5    10    1
    13     5    13    1
    14     6     7    1
    15     6    14    1
    16     6    27    1
    17     7     9    1
    18     7    15    1
    19     7    16    1
    20     8    11    1
    21     8    12    1
    22     8    28    1
    23     9    12    1
    24     9    29    1
    25    10    30    1
    26    11    18    1
    27    11    19    1
    28    11    23    1
    29    12    31    1
    30    12    32    1
    31    13    21    1
    32    13    33    1
    33    13    34    1
    34    14    17    1
    35    14    35    1
    36    14    36    1
    37    15    20    1
    38    15    37    1
    39    15    38    1
    40    16    22    1
    41    16    39    1
    42    17    20    1
    43    17    22    1
    44    17    40    1
    45    18    41    1
    46    18    42    1
    47    19    21    1
    48    19    43    1
    49    19    44    1
    50    20    45    1
    51    20    46    1
    52    21    47    1
    53    21    48    1
    54    22    25    2
    55    23    49    1
    56    23    50    1
    57    23    51    1
    58    24    26    1
    59    24    52    1
    60    24    53    1
    61    25    55    1
    62    25    56    1
    63    26    57    1
    64    26    58    1
