@<TRIPOS>MOLECULE
IMPHY016478
 58 57 0 0 0
SMALL
GASTEIGER

@<TRIPOS>ATOM
      1 C           6.3301    0.7500    0.0000 C.3     1  UNL1       -0.0530
      2 C           5.4641    0.2500    0.0000 C.3     1  UNL1       -0.0531
      3 C           7.1962    0.2500    0.0000 C.3     1  UNL1       -0.0528
      4 C           4.5981    0.7500    0.0000 C.3     1  UNL1       -0.0531
      5 C           8.0622    0.7500    0.0000 C.3     1  UNL1       -0.0496
      6 C           3.7320    0.2500    0.0000 C.3     1  UNL1       -0.0533
      7 C           8.9282    0.2500    0.0000 C.3     1  UNL1       -0.0345
      8 C           2.8660    0.7500    0.0000 C.3     1  UNL1       -0.0559
      9 C           9.7942    0.7500    0.0000 C.2     1  UNL1       -0.0847
     10 C          10.6603    0.2500    0.0000 C.2     1  UNL1       -0.0726
     11 C          11.5263    0.7500    0.0000 C.3     1  UNL1       -0.0110
     12 C          12.3923    0.2500    0.0000 C.2     1  UNL1       -0.0726
     13 C           2.0000    0.2500    0.0000 C.3     1  UNL1       -0.0653
     14 C          14.1244    0.2500    0.0000 C.3     1  UNL1       -0.0345
     15 C          14.9904    0.7500    0.0000 C.3     1  UNL1       -0.0499
     16 C          13.2583    0.7500    0.0000 C.2     1  UNL1       -0.0847
     17 C          10.6603   -0.7500    0.0000 C.3     1  UNL1       -0.0435
     18 C          15.8564    0.2500    0.0000 C.3     1  UNL1       -0.0556
     19 C          12.3923   -0.7500    0.0000 C.3     1  UNL1       -0.0435
     20 C          16.7224    0.7500    0.0000 C.3     1  UNL1       -0.0653
     21 H           6.7287    1.2250    0.0000 H       1  UNL1        0.0265
     22 H           5.9316    1.2250    0.0000 H       1  UNL1        0.0265
     23 H           5.0656   -0.2249    0.0000 H       1  UNL1        0.0265
     24 H           5.8626   -0.2249    0.0000 H       1  UNL1        0.0265
     25 H           6.7976   -0.2249    0.0000 H       1  UNL1        0.0265
     26 H           7.5947   -0.2249    0.0000 H       1  UNL1        0.0265
     27 H           4.9966    1.2250    0.0000 H       1  UNL1        0.0265
     28 H           4.1996    1.2250    0.0000 H       1  UNL1        0.0265
     29 H           8.4607    1.2250    0.0000 H       1  UNL1        0.0268
     30 H           7.6636    1.2250    0.0000 H       1  UNL1        0.0268
     31 H           3.3335   -0.2249    0.0000 H       1  UNL1        0.0265
     32 H           4.1306   -0.2249    0.0000 H       1  UNL1        0.0265
     33 H           8.5297   -0.2249    0.0000 H       1  UNL1        0.0307
     34 H           9.3267   -0.2249    0.0000 H       1  UNL1        0.0307
     35 H           3.2646    1.2250    0.0000 H       1  UNL1        0.0263
     36 H           2.4675    1.2250    0.0000 H       1  UNL1        0.0263
     37 H           9.7942    1.3700    0.0000 H       1  UNL1        0.0572
     38 H          11.9248    1.2250    0.0000 H       1  UNL1        0.0355
     39 H          11.1278    1.2250    0.0000 H       1  UNL1        0.0355
     40 H           1.6900    0.7869    0.0000 H       1  UNL1        0.0230
     41 H           1.4631   -0.0600    0.0000 H       1  UNL1        0.0230
     42 H           2.3100   -0.2869    0.0000 H       1  UNL1        0.0230
     43 H          13.7258   -0.2249    0.0000 H       1  UNL1        0.0307
     44 H          14.5229   -0.2249    0.0000 H       1  UNL1        0.0307
     45 H          15.3889    1.2250    0.0000 H       1  UNL1        0.0268
     46 H          14.5919    1.2250    0.0000 H       1  UNL1        0.0268
     47 H          13.2583    1.3700    0.0000 H       1  UNL1        0.0572
     48 H          10.0403   -0.7500    0.0000 H       1  UNL1        0.0274
     49 H          10.6603   -1.3700    0.0000 H       1  UNL1        0.0274
     50 H          11.2803   -0.7500    0.0000 H       1  UNL1        0.0274
     51 H          15.4579   -0.2249    0.0000 H       1  UNL1        0.0263
     52 H          16.2549   -0.2249    0.0000 H       1  UNL1        0.0263
     53 H          11.7723   -0.7500    0.0000 H       1  UNL1        0.0274
     54 H          12.3923   -1.3700    0.0000 H       1  UNL1        0.0274
     55 H          13.0123   -0.7500    0.0000 H       1  UNL1        0.0274
     56 H          17.0324    0.2131    0.0000 H       1  UNL1        0.0230
     57 H          17.2594    1.0600    0.0000 H       1  UNL1        0.0230
     58 H          16.4124    1.2869    0.0000 H       1  UNL1        0.0230
@<TRIPOS>BOND
     1     1     2    1
     2     1     3    1
     3     1    21    1
     4     1    22    1
     5     2     4    1
     6     2    23    1
     7     2    24    1
     8     3     5    1
     9     3    25    1
    10     3    26    1
    11     4     6    1
    12     4    27    1
    13     4    28    1
    14     5     7    1
    15     5    29    1
    16     5    30    1
    17     6     8    1
    18     6    31    1
    19     6    32    1
    20     7     9    1
    21     7    33    1
    22     7    34    1
    23     8    13    1
    24     8    35    1
    25     8    36    1
    26     9    10    2
    27     9    37    1
    28    10    11    1
    29    10    17    1
    30    11    12    1
    31    11    38    1
    32    11    39    1
    33    12    16    2
    34    12    19    1
    35    13    40    1
    36    13    41    1
    37    13    42    1
    38    14    15    1
    39    14    16    1
    40    14    43    1
    41    14    44    1
    42    15    18    1
    43    15    45    1
    44    15    46    1
    45    16    47    1
    46    17    48    1
    47    17    49    1
    48    17    50    1
    49    18    20    1
    50    18    51    1
    51    18    52    1
    52    19    53    1
    53    19    54    1
    54    19    55    1
    55    20    56    1
    56    20    57    1
    57    20    58    1
