@<TRIPOS>MOLECULE
IMPHY003967
 39 40 0 0 0
SMALL
GASTEIGER

@<TRIPOS>ATOM
      1 O           3.7320   -2.2032    0.0000 O.2     1  UNL1       -0.3004
      2 O           2.0000   -0.2032    0.0000 O.2     1  UNL1       -0.2960
      3 C           5.4641   -0.2032    0.0000 C.3     1  UNL1       -0.0151
      4 C           5.4641    0.7968    0.0000 C.3     1  UNL1       -0.0261
      5 C           6.3580    1.3315    0.0000 C.3     1  UNL1       -0.0312
      6 C           6.3580   -0.7379    0.0000 C.3     1  UNL1       -0.0464
      7 C           7.2641    0.8176    0.0000 C.3     1  UNL1       -0.0476
      8 C           4.5981   -0.7032    0.0000 C.3     1  UNL1        0.0478
      9 C           7.2641   -0.2240    0.0000 C.3     1  UNL1       -0.0520
     10 C           4.5981    1.2968    0.0000 C.3     1  UNL1       -0.0302
     11 C           5.4641   -1.2032    0.0000 C.3     1  UNL1       -0.0583
     12 C           6.8480    2.2032    0.0000 C.3     1  UNL1       -0.0595
     13 C           5.8481    2.1916    0.0000 C.3     1  UNL1       -0.0595
     14 C           3.7320   -0.2032    0.0000 C.2     1  UNL1       -0.0017
     15 C           3.7320    0.7968    0.0000 C.2     1  UNL1       -0.0768
     16 C           4.5981   -1.7032    0.0000 C.2     1  UNL1        0.1283
     17 C           2.8660   -0.7032    0.0000 C.2     1  UNL1        0.1466
     18 H           5.4576    1.6468    0.0000 H       1  UNL1        0.0314
     19 H           5.9534   -1.2076    0.0000 H       1  UNL1        0.0271
     20 H           6.7517   -1.2169    0.0000 H       1  UNL1        0.0271
     21 H           7.8750    0.7115    0.0000 H       1  UNL1        0.0271
     22 H           7.4732    1.4013    0.0000 H       1  UNL1        0.0271
     23 H           4.0611   -1.0132    0.0000 H       1  UNL1        0.0429
     24 H           7.4732   -0.8077    0.0000 H       1  UNL1        0.0266
     25 H           7.8750   -0.1179    0.0000 H       1  UNL1        0.0266
     26 H           4.9966    1.7717    0.0000 H       1  UNL1        0.0311
     27 H           4.1996    1.7717    0.0000 H       1  UNL1        0.0311
     28 H           4.8441   -1.2032    0.0000 H       1  UNL1        0.0235
     29 H           5.4641   -1.8232    0.0000 H       1  UNL1        0.0235
     30 H           6.0841   -1.2032    0.0000 H       1  UNL1        0.0235
     31 H           7.3885    1.8994    0.0000 H       1  UNL1        0.0235
     32 H           7.1518    2.7437    0.0000 H       1  UNL1        0.0235
     33 H           6.3075    2.5070    0.0000 H       1  UNL1        0.0235
     34 H           6.3814    2.5078    0.0000 H       1  UNL1        0.0235
     35 H           5.5319    2.7250    0.0000 H       1  UNL1        0.0235
     36 H           5.3148    1.8754    0.0000 H       1  UNL1        0.0235
     37 H           3.1951    1.1068    0.0000 H       1  UNL1        0.0576
     38 H           5.1350   -2.0132    0.0000 H       1  UNL1        0.1033
     39 H           2.8660   -1.3232    0.0000 H       1  UNL1        0.1078
@<TRIPOS>BOND
     1     1    16    2
     2     2    17    2
     3     3     4    1
     4     3     6    1
     5     3     8    1
     6     3    11    1
     7     4     5    1
     8     4    10    1
     9     4    18    1
    10     5     7    1
    11     5    12    1
    12     5    13    1
    13     6     9    1
    14     6    19    1
    15     6    20    1
    16     7     9    1
    17     7    21    1
    18     7    22    1
    19     8    14    1
    20     8    16    1
    21     8    23    1
    22     9    24    1
    23     9    25    1
    24    10    15    1
    25    10    26    1
    26    10    27    1
    27    11    28    1
    28    11    29    1
    29    11    30    1
    30    12    31    1
    31    12    32    1
    32    12    33    1
    33    13    34    1
    34    13    35    1
    35    13    36    1
    36    14    15    2
    37    14    17    1
    38    15    37    1
    39    16    38    1
    40    17    39    1
