@<TRIPOS>MOLECULE
IMPHY009353
 76 80 0 0 0
SMALL
GASTEIGER

@<TRIPOS>ATOM
      1 O           3.7320   -0.2652    0.0000 O.3     1  UNL1       -0.4606
      2 O           5.4148    2.9315    0.0000 O.3     1  UNL1       -0.4239
      3 O           7.2954    2.7274    0.0000 O.3     1  UNL1       -0.3325
      4 O           6.3422   -4.8345    0.0000 O.2     1  UNL1       -0.2921
      5 O           3.6076    2.8717    0.0000 O.2     1  UNL1       -0.2455
      6 O           8.0644    4.3311    0.0000 O.2     1  UNL1       -0.4705
      7 O           2.8660   -1.7652    0.0000 O.2     1  UNL1       -0.2512
      8 O           9.7636    1.7743    0.0000 O.3     1  UNL1       -0.3927
      9 C           6.3301   -0.7652    0.0000 C.3     1  UNL1       -0.0194
     10 C           5.4641   -0.2652    0.0000 C.3     1  UNL1        0.0307
     11 C           6.3301   -1.7652    0.0000 C.3     1  UNL1       -0.0061
     12 C           5.4641   -2.2652    0.0000 C.3     1  UNL1       -0.0164
     13 C           4.5981   -0.7652    0.0000 C.3     1  UNL1        0.1126
     14 C           6.3461    1.3040    0.0000 C.3     1  UNL1        0.0603
     15 C           4.5981   -1.7652    0.0000 C.3     1  UNL1       -0.0103
     16 C           7.2401   -0.2584    0.0000 C.3     1  UNL1       -0.0475
     17 C           5.4480    0.7763    0.0000 C.2     1  UNL1       -0.0407
     18 C           5.4480   -3.3067    0.0000 C.3     1  UNL1        0.0311
     19 C           7.2482    0.7832    0.0000 C.3     1  UNL1       -0.0372
     20 C           4.5981    0.2348    0.0000 C.3     1  UNL1       -0.0521
     21 C           7.1962   -1.2652    0.0000 C.3     1  UNL1       -0.0555
     22 C           7.2401   -2.2721    0.0000 C.2     1  UNL1       -0.0742
     23 C           6.3544    2.3890    0.0000 C.3     1  UNL1        0.2546
     24 C           7.3295    1.4853    0.0000 C.3     1  UNL1       -0.0494
     25 C           6.3461   -3.8345    0.0000 C.2     1  UNL1        0.1617
     26 C           4.4961    1.2969    0.0000 C.2     1  UNL1        0.0232
     27 C           7.2482   -3.3137    0.0000 C.2     1  UNL1       -0.0221
     28 C           4.9381   -4.1669    0.0000 C.3     1  UNL1       -0.0525
     29 C           4.4481   -3.2952    0.0000 C.3     1  UNL1       -0.0525
     30 C           6.8578    3.2531    0.0000 C.ar    1  UNL1        0.0620
     31 C           4.4794    2.3818    0.0000 C.2     1  UNL1        0.3346
     32 C           2.8660   -0.7652    0.0000 C.2     1  UNL1        0.3042
     33 C           6.4546    4.1682    0.0000 C.ar    1  UNL1       -0.0145
     34 C           7.8527    3.3538    0.0000 C.ar    1  UNL1        0.1011
     35 C           8.0590    2.0817    0.0000 C.3     1  UNL1        0.0754
     36 C           2.0000   -0.2652    0.0000 C.3     1  UNL1        0.0332
     37 C           7.2003    4.8345    0.0000 C.ar    1  UNL1        0.0922
     38 C           9.0000    2.4201    0.0000 C.3     1  UNL1        0.0677
     39 H           7.0630   -1.1959    0.0000 H       1  UNL1        0.0319
     40 H           4.7247   -2.6845    0.0000 H       1  UNL1        0.0320
     41 H           5.1602   -0.1452    0.0000 H       1  UNL1        0.0743
     42 H           3.9875   -1.6576    0.0000 H       1  UNL1        0.0304
     43 H           4.3860   -2.3478    0.0000 H       1  UNL1        0.0304
     44 H           7.4447   -0.8437    0.0000 H       1  UNL1        0.0269
     45 H           7.8518   -0.1570    0.0000 H       1  UNL1        0.0269
     46 H           7.8582    0.6724    0.0000 H       1  UNL1        0.0276
     47 H           7.4617    1.3653    0.0000 H       1  UNL1        0.0276
     48 H           4.9081    0.7717    0.0000 H       1  UNL1        0.0239
     49 H           4.0611    0.5448    0.0000 H       1  UNL1        0.0239
     50 H           4.2881   -0.3021    0.0000 H       1  UNL1        0.0239
     51 H           7.5062   -1.8022    0.0000 H       1  UNL1        0.0238
     52 H           7.7331   -0.9552    0.0000 H       1  UNL1        0.0238
     53 H           6.8862   -0.7283    0.0000 H       1  UNL1        0.0238
     54 H           7.7734   -1.9559    0.0000 H       1  UNL1        0.0579
     55 H           7.4419    0.8755    0.0000 H       1  UNL1        0.0240
     56 H           7.9392    1.5976    0.0000 H       1  UNL1        0.0240
     57 H           7.2172    2.0950    0.0000 H       1  UNL1        0.0240
     58 H           3.9652    0.9766    0.0000 H       1  UNL1        0.0689
     59 H           7.7863   -3.6216    0.0000 H       1  UNL1        0.0649
     60 H           4.4048   -3.8507    0.0000 H       1  UNL1        0.0239
     61 H           4.6219   -4.7002    0.0000 H       1  UNL1        0.0239
     62 H           5.4714   -4.4831    0.0000 H       1  UNL1        0.0239
     63 H           4.4553   -2.6752    0.0000 H       1  UNL1        0.0239
     64 H           3.8282   -3.2880    0.0000 H       1  UNL1        0.0239
     65 H           4.4409   -3.9151    0.0000 H       1  UNL1        0.0239
     66 H           5.8486    4.2994    0.0000 H       1  UNL1        0.0654
     67 H           8.2658    2.8914    0.0000 H       1  UNL1        0.1034
     68 H           7.5825    1.6850    0.0000 H       1  UNL1        0.0584
     69 H           8.3669    1.5435    0.0000 H       1  UNL1        0.0584
     70 H           2.3100    0.2717    0.0000 H       1  UNL1        0.0342
     71 H           1.4631    0.0448    0.0000 H       1  UNL1        0.0342
     72 H           1.6900   -0.8022    0.0000 H       1  UNL1        0.0342
     73 H           7.1378    5.4513    0.0000 H       1  UNL1        0.1029
     74 H           9.4765    2.8168    0.0000 H       1  UNL1        0.0580
     75 H           8.6921    2.9582    0.0000 H       1  UNL1        0.0580
     76 H          10.3470    1.9841    0.0000 H       1  UNL1        0.2095
@<TRIPOS>BOND
     1    13     1    1
     2     1    32    1
     3     2    23    1
     4     2    31    1
     5    23     3    1
     6     3    35    1
     7     4    25    2
     8     5    31    2
     9     6    34   ar
    10     6    37   ar
    11     7    32    2
    12     8    38    1
    13     8    76    1
    14     9    10    1
    15     9    11    1
    16     9    16    1
    17     9    39    1
    18    10    13    1
    19    10    17    1
    20    10    20    1
    21    11    12    1
    22    11    21    1
    23    11    22    1
    24    12    15    1
    25    12    18    1
    26    12    40    1
    27    13    15    1
    28    13    41    1
    29    14    17    1
    30    14    19    1
    31    14    23    1
    32    14    24    1
    33    15    42    1
    34    15    43    1
    35    16    19    1
    36    16    44    1
    37    16    45    1
    38    17    26    2
    39    18    25    1
    40    18    28    1
    41    18    29    1
    42    19    46    1
    43    19    47    1
    44    20    48    1
    45    20    49    1
    46    20    50    1
    47    21    51    1
    48    21    52    1
    49    21    53    1
    50    22    27    2
    51    22    54    1
    52    23    30    1
    53    24    55    1
    54    24    56    1
    55    24    57    1
    56    25    27    1
    57    26    31    1
    58    26    58    1
    59    27    59    1
    60    28    60    1
    61    28    61    1
    62    28    62    1
    63    29    63    1
    64    29    64    1
    65    29    65    1
    66    30    33   ar
    67    30    34   ar
    68    32    36    1
    69    33    37   ar
    70    33    66    1
    71    34    67    1
    72    35    38    1
    73    35    68    1
    74    35    69    1
    75    36    70    1
    76    36    71    1
    77    36    72    1
    78    37    73    1
    79    38    74    1
    80    38    75    1
