@<TRIPOS>MOLECULE
IMPHY005713
 27 27 0 0 0
SMALL
GASTEIGER

@<TRIPOS>ATOM
      1 BR          2.0000    0.2500    0.0000 Br      1  UNL1       -0.0813
      2 BR          4.5981   -0.2500    0.0000 Br      1  UNL1       -0.0747
      3 O           4.5981    1.7500    0.0000 O.3     1  UNL1       -0.4641
      4 O           2.8660    1.7500    0.0000 O.2     1  UNL1       -0.2495
      5 C           2.8660   -0.2500    0.0000 C.3     1  UNL1        0.0624
      6 C           3.7320    0.2500    0.0000 C.3     1  UNL1        0.1279
      7 C           2.8660   -1.2500    0.0000 C.ar    1  UNL1       -0.0323
      8 C           2.0000   -1.7500    0.0000 C.ar    1  UNL1       -0.0575
      9 C           3.7320   -1.7500    0.0000 C.ar    1  UNL1       -0.0575
     10 C           3.7320    1.2500    0.0000 C.2     1  UNL1        0.3222
     11 C           2.0000   -2.7500    0.0000 C.ar    1  UNL1       -0.0615
     12 C           3.7320   -2.7500    0.0000 C.ar    1  UNL1       -0.0615
     13 C           2.8660   -3.2500    0.0000 C.ar    1  UNL1       -0.0617
     14 C           4.5981    2.7500    0.0000 C.3     1  UNL1        0.0897
     15 C           5.4641    3.2500    0.0000 C.3     1  UNL1       -0.0306
     16 H           2.8660    0.6000    0.0000 H       1  UNL1        0.0483
     17 H           3.7320   -0.6000    0.0000 H       1  UNL1        0.0547
     18 H           1.4631   -1.4400    0.0000 H       1  UNL1        0.0621
     19 H           4.2690   -1.4400    0.0000 H       1  UNL1        0.0621
     20 H           1.4631   -3.0600    0.0000 H       1  UNL1        0.0618
     21 H           4.2690   -3.0600    0.0000 H       1  UNL1        0.0618
     22 H           2.8660   -3.8700    0.0000 H       1  UNL1        0.0618
     23 H           4.3860    3.3326    0.0000 H       1  UNL1        0.0694
     24 H           3.9875    2.6423    0.0000 H       1  UNL1        0.0694
     25 H           5.7741    2.7131    0.0000 H       1  UNL1        0.0262
     26 H           6.0010    3.5600    0.0000 H       1  UNL1        0.0262
     27 H           5.1541    3.7869    0.0000 H       1  UNL1        0.0262
@<TRIPOS>BOND
     1     1     5    1
     2     2     6    1
     3     3    10    1
     4     3    14    1
     5     4    10    2
     6     5     6    1
     7     5     7    1
     8     5    16    1
     9     6    10    1
    10     6    17    1
    11     7     8   ar
    12     7     9   ar
    13     8    11   ar
    14     8    18    1
    15     9    12   ar
    16     9    19    1
    17    11    13   ar
    18    11    20    1
    19    12    13   ar
    20    12    21    1
    21    13    22    1
    22    14    15    1
    23    14    23    1
    24    14    24    1
    25    15    25    1
    26    15    26    1
    27    15    27    1
