@<TRIPOS>MOLECULE
IMPHY008459
 170 176 0 0 0
SMALL
GASTEIGER

@<TRIPOS>ATOM
      1 O           5.1350   -0.8344    0.0000 O.3     1  UNL1       -0.3404
      2 O           6.8671    6.1656    0.0000 O.3     1  UNL1       -0.3404
      3 O          11.1972   -6.5306    0.0000 O.3     1  UNL1       -0.3404
      4 O           6.8671   -0.8344    0.0000 O.3     1  UNL1       -0.3061
      5 O           8.5991    6.1656    0.0000 O.3     1  UNL1       -0.3061
      6 O          11.1972   -4.7985    0.0000 O.3     1  UNL1       -0.3061
      7 O           5.1350   -3.8344    0.0000 O.3     1  UNL1       -0.3864
      8 O           3.4030   -2.8344    0.0000 O.3     1  UNL1       -0.3865
      9 O           6.8671    9.1656    0.0000 O.3     1  UNL1       -0.3864
     10 O           6.8671   -2.8344    0.0000 O.3     1  UNL1       -0.3841
     11 O           5.1350    8.1656    0.0000 O.3     1  UNL1       -0.3865
     12 O          14.1973   -6.5305    0.0000 O.3     1  UNL1       -0.3864
     13 O           8.5991    8.1656    0.0000 O.3     1  UNL1       -0.3841
     14 O          13.1973   -8.2626    0.0000 O.3     1  UNL1       -0.3865
     15 O          13.1973   -4.7985    0.0000 O.3     1  UNL1       -0.3841
     16 O           6.0010    0.6656    0.0000 O.2     1  UNL1       -0.4666
     17 O           9.4651    7.6656    0.0000 O.2     1  UNL1       -0.4666
     18 O          12.6973   -3.9324    0.0000 O.2     1  UNL1       -0.4666
     19 O           2.5369   -1.3344    0.0000 O.3     1  UNL1       -0.3924
     20 O           4.2690    6.6656    0.0000 O.3     1  UNL1       -0.3924
     21 O          11.6972   -9.1286    0.0000 O.3     1  UNL1       -0.3924
     22 O           9.4651    3.6656    0.0000 O.3     1  UNL1       -0.4604
     23 O          10.3312    0.1656    0.0000 O.3     1  UNL1       -0.4604
     24 O           5.2395    2.7580    0.0000 O.3     1  UNL1       -0.4646
     25 O          12.9292    4.6656    0.0000 O.3     1  UNL1       -0.4643
     26 O           7.7331    3.6656    0.0000 O.2     1  UNL1       -0.2508
     27 O          12.0632    9.1656    0.0000 O.3     1  UNL1       -0.4646
     28 O          14.1972   -1.3344    0.0000 O.3     1  UNL1       -0.4646
     29 O           9.4651   -1.3344    0.0000 O.2     1  UNL1       -0.2508
     30 O           6.5663    3.8713    0.0000 O.2     1  UNL1       -0.2452
     31 O           8.6971   -3.9324    0.0000 O.3     1  UNL1       -0.3910
     32 O          12.9292    7.6656    0.0000 O.2     1  UNL1       -0.2452
     33 O          12.6972   -0.4684    0.0000 O.2     1  UNL1       -0.2452
     34 O          11.5632    4.2996    0.0000 O.2     1  UNL1       -0.2508
     35 O          17.2594    8.1656    0.0000 O.3     1  UNL1       -0.5068
     36 C           5.1350   -2.8344    0.0000 C.3     1  UNL1        0.1141
     37 C           4.2690   -2.3344    0.0000 C.3     1  UNL1        0.1119
     38 C           6.8671    8.1656    0.0000 C.3     1  UNL1        0.1141
     39 C           6.0010   -2.3344    0.0000 C.3     1  UNL1        0.1343
     40 C           6.0010    7.6656    0.0000 C.3     1  UNL1        0.1119
     41 C          13.1973   -6.5305    0.0000 C.3     1  UNL1        0.1141
     42 C           7.7331    7.6656    0.0000 C.3     1  UNL1        0.1343
     43 C          12.6973   -7.3966    0.0000 C.3     1  UNL1        0.1119
     44 C           4.2690   -1.3344    0.0000 C.3     1  UNL1        0.1130
     45 C          12.6973   -5.6645    0.0000 C.3     1  UNL1        0.1343
     46 C           6.0010    6.6656    0.0000 C.3     1  UNL1        0.1130
     47 C           6.0010   -1.3344    0.0000 C.3     1  UNL1        0.1921
     48 C          11.6972   -7.3966    0.0000 C.3     1  UNL1        0.1130
     49 C           7.7331    6.6656    0.0000 C.3     1  UNL1        0.1921
     50 C          11.6972   -5.6645    0.0000 C.3     1  UNL1        0.1921
     51 C           3.4030   -0.8344    0.0000 C.3     1  UNL1        0.0730
     52 C           5.1350    6.1656    0.0000 C.3     1  UNL1        0.0730
     53 C           6.8671    0.1656    0.0000 C.3     1  UNL1        0.2267
     54 C          11.1972   -8.2626    0.0000 C.3     1  UNL1        0.0730
     55 C           9.4651    6.6656    0.0000 C.3     1  UNL1        0.2267
     56 C          11.6973   -3.9325    0.0000 C.3     1  UNL1        0.2266
     57 C           7.7331    1.6656    0.0000 C.3     1  UNL1        0.0308
     58 C           7.7331    0.6656    0.0000 C.2     1  UNL1        0.0053
     59 C          10.3312    6.1656    0.0000 C.2     1  UNL1        0.0053
     60 C          11.1972    6.6656    0.0000 C.3     1  UNL1        0.0308
     61 C          11.6973   -2.2004    0.0000 C.3     1  UNL1        0.0308
     62 C          11.1972   -3.0665    0.0000 C.2     1  UNL1        0.0043
     63 C           8.5991    2.1656    0.0000 C.3     1  UNL1        0.0559
     64 C           6.8671    2.1656    0.0000 C.2     1  UNL1        0.0785
     65 C          11.1972   -1.3344    0.0000 C.3     1  UNL1        0.0559
     66 C          11.1972    7.6656    0.0000 C.2     1  UNL1        0.0785
     67 C          12.6972   -2.2004    0.0000 C.2     1  UNL1        0.0785
     68 C          12.0632    6.1656    0.0000 C.3     1  UNL1        0.0559
     69 C           8.5991    0.1656    0.0000 C.2     1  UNL1       -0.0413
     70 C          10.3312    5.1656    0.0000 C.2     1  UNL1       -0.0413
     71 C           6.0010    1.6656    0.0000 C.2     1  UNL1        0.0988
     72 C          10.3312    8.1656    0.0000 C.2     1  UNL1        0.0988
     73 C          10.1972   -3.0664    0.0000 C.2     1  UNL1       -0.0533
     74 C          13.1972   -3.0665    0.0000 C.2     1  UNL1        0.0988
     75 C           9.4651    0.6656    0.0000 C.3     1  UNL1        0.1112
     76 C           9.4651    4.6656    0.0000 C.3     1  UNL1        0.1112
     77 C           8.5991    3.1656    0.0000 C.2     1  UNL1        0.3083
     78 C          10.3312   -0.8344    0.0000 C.2     1  UNL1        0.3083
     79 C           6.2243    2.9316    0.0000 C.2     1  UNL1        0.3384
     80 C          12.0632    8.1656    0.0000 C.2     1  UNL1        0.3384
     81 C          13.1972   -1.3344    0.0000 C.2     1  UNL1        0.3384
     82 C          12.0632    5.1656    0.0000 C.2     1  UNL1        0.3080
     83 C           9.6972   -3.9325    0.0000 C.3     1  UNL1        0.0628
     84 C          13.7953    5.1656    0.0000 C.3     1  UNL1        0.0964
     85 C           4.5967    3.5240    0.0000 C.3     1  UNL1        0.0820
     86 C          12.9292    9.6656    0.0000 C.3     1  UNL1        0.0820
     87 C          14.6972   -0.4684    0.0000 C.3     1  UNL1        0.0820
     88 C          13.7953    6.1656    0.0000 C.3     1  UNL1        0.0067
     89 C          14.6613    6.6656    0.0000 C.ar    1  UNL1       -0.0439
     90 C          15.5273    6.1656    0.0000 C.ar    1  UNL1       -0.0550
     91 C          14.6613    7.6656    0.0000 C.ar    1  UNL1       -0.0550
     92 C          16.3933    6.6656    0.0000 C.ar    1  UNL1       -0.0199
     93 C          15.5273    8.1656    0.0000 C.ar    1  UNL1       -0.0199
     94 C          16.3933    7.6656    0.0000 C.ar    1  UNL1        0.1169
     95 H           5.6720   -3.1444    0.0000 H       1  UNL1        0.0648
     96 H           4.2690   -2.9544    0.0000 H       1  UNL1        0.0647
     97 H           7.4040    8.4756    0.0000 H       1  UNL1        0.0648
     98 H           6.5380   -2.0244    0.0000 H       1  UNL1        0.0671
     99 H           5.4641    7.3556    0.0000 H       1  UNL1        0.0647
    100 H          13.5073   -7.0675    0.0000 H       1  UNL1        0.0648
    101 H           8.2700    7.3556    0.0000 H       1  UNL1        0.0671
    102 H          12.3873   -7.9335    0.0000 H       1  UNL1        0.0647
    103 H           4.2690   -0.7144    0.0000 H       1  UNL1        0.0647
    104 H          12.3873   -5.1276    0.0000 H       1  UNL1        0.0671
    105 H           6.0010    6.0456    0.0000 H       1  UNL1        0.0647
    106 H           6.0010   -0.7144    0.0000 H       1  UNL1        0.0939
    107 H          11.0772   -7.3966    0.0000 H       1  UNL1        0.0647
    108 H           7.7331    6.0456    0.0000 H       1  UNL1        0.0939
    109 H          12.0072   -5.1276    0.0000 H       1  UNL1        0.0939
    110 H           3.8015   -0.3595    0.0000 H       1  UNL1        0.0584
    111 H           3.0044   -0.3595    0.0000 H       1  UNL1        0.0584
    112 H           4.7365    5.6906    0.0000 H       1  UNL1        0.0584
    113 H           5.5335    5.6906    0.0000 H       1  UNL1        0.0584
    114 H           7.4040   -0.1444    0.0000 H       1  UNL1        0.1109
    115 H          10.7223   -7.8641    0.0000 H       1  UNL1        0.0584
    116 H          10.7223   -8.6611    0.0000 H       1  UNL1        0.0584
    117 H           9.4651    6.0456    0.0000 H       1  UNL1        0.1109
    118 H          11.0773   -3.9325    0.0000 H       1  UNL1        0.1109
    119 H           8.2700    1.3556    0.0000 H       1  UNL1        0.0404
    120 H          11.1972    6.0456    0.0000 H       1  UNL1        0.0404
    121 H          12.0073   -1.6634    0.0000 H       1  UNL1        0.0404
    122 H           4.5981   -4.1444    0.0000 H       1  UNL1        0.2100
    123 H           3.4030   -3.4544    0.0000 H       1  UNL1        0.2100
    124 H           6.3301    9.4756    0.0000 H       1  UNL1        0.2100
    125 H           6.8671   -3.4544    0.0000 H       1  UNL1        0.2101
    126 H           5.1350    8.7856    0.0000 H       1  UNL1        0.2100
    127 H          14.5073   -7.0675    0.0000 H       1  UNL1        0.2100
    128 H           8.5991    8.7856    0.0000 H       1  UNL1        0.2101
    129 H          13.8173   -8.2626    0.0000 H       1  UNL1        0.2100
    130 H          13.8172   -4.7985    0.0000 H       1  UNL1        0.2101
    131 H           8.8112    1.5830    0.0000 H       1  UNL1        0.0387
    132 H           9.2097    2.2732    0.0000 H       1  UNL1        0.0387
    133 H          11.8078   -1.2267    0.0000 H       1  UNL1        0.0387
    134 H          10.7588   -1.7728    0.0000 H       1  UNL1        0.0387
    135 H          12.6738    6.0579    0.0000 H       1  UNL1        0.0387
    136 H          12.2753    6.7482    0.0000 H       1  UNL1        0.0387
    137 H           8.5991   -0.4544    0.0000 H       1  UNL1        0.0607
    138 H          10.6412    4.6287    0.0000 H       1  UNL1        0.0607
    139 H           5.4641    1.9756    0.0000 H       1  UNL1        0.1030
    140 H          10.3312    8.7856    0.0000 H       1  UNL1        0.1030
    141 H           9.8871   -2.5295    0.0000 H       1  UNL1        0.0596
    142 H          13.8172   -3.0664    0.0000 H       1  UNL1        0.1030
    143 H           2.0000   -1.0244    0.0000 H       1  UNL1        0.2095
    144 H           3.7320    6.3556    0.0000 H       1  UNL1        0.2095
    145 H          11.3872   -9.6656    0.0000 H       1  UNL1        0.2095
    146 H           9.8637    1.1405    0.0000 H       1  UNL1        0.0743
    147 H           9.0666    1.1405    0.0000 H       1  UNL1        0.0743
    148 H           9.2531    5.2482    0.0000 H       1  UNL1        0.0743
    149 H           8.8546    4.5579    0.0000 H       1  UNL1        0.0743
    150 H           9.5895   -4.5431    0.0000 H       1  UNL1        0.0601
    151 H          10.2798   -4.1445    0.0000 H       1  UNL1        0.0601
    152 H           8.3871   -3.3955    0.0000 H       1  UNL1        0.2098
    153 H          14.0073    4.5830    0.0000 H       1  UNL1        0.0701
    154 H          14.4058    5.2732    0.0000 H       1  UNL1        0.0701
    155 H           5.0716    3.9226    0.0000 H       1  UNL1        0.0661
    156 H           4.1982    3.9990    0.0000 H       1  UNL1        0.0661
    157 H           4.1217    3.1255    0.0000 H       1  UNL1        0.0661
    158 H          13.2392    9.1286    0.0000 H       1  UNL1        0.0661
    159 H          13.4662    9.9756    0.0000 H       1  UNL1        0.0661
    160 H          12.6192   10.2025    0.0000 H       1  UNL1        0.0661
    161 H          15.2341   -0.7784    0.0000 H       1  UNL1        0.0661
    162 H          15.0072    0.0685    0.0000 H       1  UNL1        0.0661
    163 H          14.1603   -0.1584    0.0000 H       1  UNL1        0.0661
    164 H          13.5832    6.7482    0.0000 H       1  UNL1        0.0346
    165 H          13.1847    6.0579    0.0000 H       1  UNL1        0.0346
    166 H          15.5273    5.5456    0.0000 H       1  UNL1        0.0621
    167 H          14.1244    7.9756    0.0000 H       1  UNL1        0.0621
    168 H          16.9303    6.3556    0.0000 H       1  UNL1        0.0654
    169 H          15.5273    8.7856    0.0000 H       1  UNL1        0.0654
    170 H          17.2594    8.7856    0.0000 H       1  UNL1        0.2921
@<TRIPOS>BOND
     1     1    44    1
     2     1    47    1
     3     2    46    1
     4     2    49    1
     5     3    48    1
     6     3    50    1
     7    47     4    1
     8    53     4    1
     9    49     5    1
    10    55     5    1
    11    50     6    1
    12    56     6    1
    13    36     7    1
    14     7   122    1
    15    37     8    1
    16     8   123    1
    17    38     9    1
    18     9   124    1
    19    39    10    1
    20    10   125    1
    21    40    11    1
    22    11   126    1
    23    41    12    1
    24    12   127    1
    25    42    13    1
    26    13   128    1
    27    43    14    1
    28    14   129    1
    29    45    15    1
    30    15   130    1
    31    16    53    1
    32    16    71    1
    33    17    55    1
    34    17    72    1
    35    18    56    1
    36    18    74    1
    37    19    51    1
    38    19   143    1
    39    20    52    1
    40    20   144    1
    41    21    54    1
    42    21   145    1
    43    22    76    1
    44    22    77    1
    45    23    75    1
    46    23    78    1
    47    24    79    1
    48    24    85    1
    49    25    82    1
    50    25    84    1
    51    26    77    2
    52    27    80    1
    53    27    86    1
    54    28    81    1
    55    28    87    1
    56    29    78    2
    57    30    79    2
    58    31    83    1
    59    31   152    1
    60    32    80    2
    61    33    81    2
    62    34    82    2
    63    35    94    1
    64    35   170    1
    65    36    37    1
    66    36    39    1
    67    36    95    1
    68    37    44    1
    69    37    96    1
    70    38    40    1
    71    38    42    1
    72    38    97    1
    73    39    47    1
    74    39    98    1
    75    40    46    1
    76    40    99    1
    77    41    43    1
    78    41    45    1
    79    41   100    1
    80    42    49    1
    81    42   101    1
    82    43    48    1
    83    43   102    1
    84    44    51    1
    85    44   103    1
    86    45    50    1
    87    45   104    1
    88    46    52    1
    89    46   105    1
    90    47   106    1
    91    48    54    1
    92    48   107    1
    93    49   108    1
    94    50   109    1
    95    51   110    1
    96    51   111    1
    97    52   112    1
    98    52   113    1
    99    53    58    1
   100    53   114    1
   101    54   115    1
   102    54   116    1
   103    55    59    1
   104    55   117    1
   105    56    62    1
   106    56   118    1
   107    57    58    1
   108    57    63    1
   109    57    64    1
   110    57   119    1
   111    58    69    2
   112    59    60    1
   113    59    70    2
   114    60    66    1
   115    60    68    1
   116    60   120    1
   117    61    62    1
   118    61    65    1
   119    61    67    1
   120    61   121    1
   121    62    73    2
   122    63    77    1
   123    63   131    1
   124    63   132    1
   125    64    71    2
   126    64    79    1
   127    65    78    1
   128    65   133    1
   129    65   134    1
   130    66    72    2
   131    66    80    1
   132    67    74    2
   133    67    81    1
   134    68    82    1
   135    68   135    1
   136    68   136    1
   137    69    75    1
   138    69   137    1
   139    70    76    1
   140    70   138    1
   141    71   139    1
   142    72   140    1
   143    73    83    1
   144    73   141    1
   145    74   142    1
   146    75   146    1
   147    75   147    1
   148    76   148    1
   149    76   149    1
   150    83   150    1
   151    83   151    1
   152    84    88    1
   153    84   153    1
   154    84   154    1
   155    85   155    1
   156    85   156    1
   157    85   157    1
   158    86   158    1
   159    86   159    1
   160    86   160    1
   161    87   161    1
   162    87   162    1
   163    87   163    1
   164    88    89    1
   165    88   164    1
   166    88   165    1
   167    89    90   ar
   168    89    91   ar
   169    90    92   ar
   170    90   166    1
   171    91    93   ar
   172    91   167    1
   173    92    94   ar
   174    92   168    1
   175    93    94   ar
   176    93   169    1
