@<TRIPOS>MOLECULE
IMPHY009172
 83 87 0 0 0
SMALL
GASTEIGER

@<TRIPOS>ATOM
      1 O           8.3593    2.8315    0.0000 O.3     1  UNL1       -0.3915
      2 O           7.9506   -2.4876    0.0000 O.3     1  UNL1       -0.3912
      3 O           2.5357   -2.5085    0.0000 O.3     1  UNL1       -0.3912
      4 C           7.9288    0.5438    0.0000 C.3     1  UNL1       -0.0170
      5 C           7.9288   -0.4562    0.0000 C.3     1  UNL1       -0.0172
      6 C           8.8228    1.0785    0.0000 C.3     1  UNL1       -0.0031
      7 C           9.7288    0.5646    0.0000 C.3     1  UNL1       -0.0232
      8 C           7.0628   -0.9562    0.0000 C.3     1  UNL1        0.0125
      9 C          10.4911    1.2654    0.0000 C.3     1  UNL1       -0.0306
     10 C           8.8228   -0.9909    0.0000 C.3     1  UNL1       -0.0460
     11 C           9.7288   -0.4770    0.0000 C.3     1  UNL1       -0.0465
     12 C           9.0329    2.0924    0.0000 C.3     1  UNL1        0.0594
     13 C           7.0628    1.0438    0.0000 C.3     1  UNL1       -0.0282
     14 C           6.1968   -0.4562    0.0000 C.2     1  UNL1       -0.0612
     15 C           5.2868   -0.9630    0.0000 C.3     1  UNL1       -0.0072
     16 C          10.0619    2.2077    0.0000 C.3     1  UNL1       -0.0230
     17 C           5.2787   -2.0046    0.0000 C.3     1  UNL1       -0.0221
     18 C           7.0789   -1.9977    0.0000 C.3     1  UNL1        0.0625
     19 C           7.9288    1.5438    0.0000 C.3     1  UNL1       -0.0584
     20 C           7.9288   -1.4562    0.0000 C.3     1  UNL1       -0.0584
     21 C           6.1808   -2.5255    0.0000 C.3     1  UNL1       -0.0221
     22 C           6.1968    0.5438    0.0000 C.2     1  UNL1       -0.0833
     23 C          10.5987    0.0713    0.0000 C.3     1  UNL1       -0.0589
     24 C           4.3433   -2.5544    0.0000 C.3     1  UNL1       -0.0052
     25 C          11.4712    1.0667    0.0000 C.3     1  UNL1       -0.0433
     26 C           4.3599   -0.3990    0.0000 C.3     1  UNL1       -0.0413
     27 C           3.4037   -2.0119    0.0000 C.3     1  UNL1        0.0607
     28 C           5.2945    0.0369    0.0000 C.3     1  UNL1       -0.0556
     29 C           3.4120   -0.9269    0.0000 C.3     1  UNL1       -0.0256
     30 C           3.8467   -3.4223    0.0000 C.3     1  UNL1       -0.0572
     31 C           4.8466   -3.4185    0.0000 C.3     1  UNL1       -0.0572
     32 C          12.1333    1.8161    0.0000 C.3     1  UNL1       -0.0624
     33 C          11.7892    0.1186    0.0000 C.3     1  UNL1       -0.0624
     34 H           9.5970    1.4292    0.0000 H       1  UNL1        0.0337
     35 H           7.8022   -1.3755    0.0000 H       1  UNL1        0.0376
     36 H          10.8770    1.7507    0.0000 H       1  UNL1        0.0309
     37 H           8.4182   -1.4606    0.0000 H       1  UNL1        0.0271
     38 H           9.2164   -1.4699    0.0000 H       1  UNL1        0.0271
     39 H           9.9379   -1.0607    0.0000 H       1  UNL1        0.0271
     40 H          10.3397   -0.3709    0.0000 H       1  UNL1        0.0271
     41 H           9.2513    2.6726    0.0000 H       1  UNL1        0.0596
     42 H           7.4613    1.5188    0.0000 H       1  UNL1        0.0313
     43 H           6.6643    1.5188    0.0000 H       1  UNL1        0.0313
     44 H          10.6500    2.4040    0.0000 H       1  UNL1        0.0293
     45 H           9.9285    2.8131    0.0000 H       1  UNL1        0.0293
     46 H           5.2820   -2.8546    0.0000 H       1  UNL1        0.0316
     47 H           7.6116   -1.6805    0.0000 H       1  UNL1        0.0599
     48 H           8.5488    1.5438    0.0000 H       1  UNL1        0.0235
     49 H           7.9288    2.1638    0.0000 H       1  UNL1        0.0235
     50 H           7.3088    1.5438    0.0000 H       1  UNL1        0.0235
     51 H           7.3088   -1.4562    0.0000 H       1  UNL1        0.0235
     52 H           7.9288   -2.0762    0.0000 H       1  UNL1        0.0235
     53 H           8.5488   -1.4562    0.0000 H       1  UNL1        0.0235
     54 H           5.7835   -3.0014    0.0000 H       1  UNL1        0.0293
     55 H           6.5818   -2.9984    0.0000 H       1  UNL1        0.0293
     56 H           5.6598    0.8538    0.0000 H       1  UNL1        0.0572
     57 H          10.2928   -0.4680    0.0000 H       1  UNL1        0.0235
     58 H          11.1380   -0.2345    0.0000 H       1  UNL1        0.0235
     59 H          10.9045    0.6106    0.0000 H       1  UNL1        0.0235
     60 H          11.0607    0.6021    0.0000 H       1  UNL1        0.0298
     61 H           4.7681    0.0677    0.0000 H       1  UNL1        0.0274
     62 H           3.9700    0.0831    0.0000 H       1  UNL1        0.0274
     63 H           2.8686   -1.6988    0.0000 H       1  UNL1        0.0599
     64 H           5.9145    0.0322    0.0000 H       1  UNL1        0.0238
     65 H           5.2993    0.6569    0.0000 H       1  UNL1        0.0238
     66 H           4.6745    0.0417    0.0000 H       1  UNL1        0.0238
     67 H           3.2075   -0.3416    0.0000 H       1  UNL1        0.0290
     68 H           2.8004   -1.0283    0.0000 H       1  UNL1        0.0290
     69 H           8.5474    3.4223    0.0000 H       1  UNL1        0.2098
     70 H           3.3085   -3.1144    0.0000 H       1  UNL1        0.0236
     71 H           3.5387   -3.9604    0.0000 H       1  UNL1        0.0236
     72 H           4.3848   -3.7302    0.0000 H       1  UNL1        0.0236
     73 H           4.3109   -3.7305    0.0000 H       1  UNL1        0.0236
     74 H           5.1587   -3.9542    0.0000 H       1  UNL1        0.0236
     75 H           5.3824   -3.1064    0.0000 H       1  UNL1        0.0236
     76 H          11.2014   -0.0785    0.0000 H       1  UNL1        0.0232
     77 H          11.9863   -0.4692    0.0000 H       1  UNL1        0.0232
     78 H          12.5979    1.4056    0.0000 H       1  UNL1        0.0232
     79 H          12.5438    2.2808    0.0000 H       1  UNL1        0.0232
     80 H          11.6687    2.2266    0.0000 H       1  UNL1        0.0232
     81 H          12.3770    0.3158    0.0000 H       1  UNL1        0.0232
     82 H           7.9578   -3.1076    0.0000 H       1  UNL1        0.2098
     83 H           2.0000   -2.1965    0.0000 H       1  UNL1        0.2098
@<TRIPOS>BOND
     1    12     1    1
     2     1    69    1
     3    18     2    1
     4     2    82    1
     5    27     3    1
     6     3    83    1
     7     4     5    1
     8     4     6    1
     9     4    13    1
    10     4    19    1
    11     5     8    1
    12     5    10    1
    13     5    20    1
    14     6     7    1
    15     6    12    1
    16     6    34    1
    17     7     9    1
    18     7    11    1
    19     7    23    1
    20     8    14    1
    21     8    18    1
    22     8    35    1
    23     9    16    1
    24     9    25    1
    25     9    36    1
    26    10    11    1
    27    10    37    1
    28    10    38    1
    29    11    39    1
    30    11    40    1
    31    12    16    1
    32    12    41    1
    33    13    22    1
    34    13    42    1
    35    13    43    1
    36    14    15    1
    37    14    22    2
    38    15    17    1
    39    15    26    1
    40    15    28    1
    41    16    44    1
    42    16    45    1
    43    17    21    1
    44    17    24    1
    45    17    46    1
    46    18    21    1
    47    18    47    1
    48    19    48    1
    49    19    49    1
    50    19    50    1
    51    20    51    1
    52    20    52    1
    53    20    53    1
    54    21    54    1
    55    21    55    1
    56    22    56    1
    57    23    57    1
    58    23    58    1
    59    23    59    1
    60    24    27    1
    61    24    30    1
    62    24    31    1
    63    25    32    1
    64    25    33    1
    65    25    60    1
    66    26    29    1
    67    26    61    1
    68    26    62    1
    69    27    29    1
    70    27    63    1
    71    28    64    1
    72    28    65    1
    73    28    66    1
    74    29    67    1
    75    29    68    1
    76    30    70    1
    77    30    71    1
    78    30    72    1
    79    31    73    1
    80    31    74    1
    81    31    75    1
    82    32    78    1
    83    32    79    1
    84    32    80    1
    85    33    76    1
    86    33    77    1
    87    33    81    1
