@<TRIPOS>MOLECULE
IMPHY009837
 40 42 0 0 0
SMALL
GASTEIGER

@<TRIPOS>ATOM
      1 O           5.8471   -0.9017    0.0000 O.2     1  UNL1       -0.2965
      2 C           3.1621    0.0729    0.0000 C.3     1  UNL1       -0.0137
      3 C           3.9985   -0.3299    0.0000 C.3     1  UNL1       -0.0224
      4 C           3.1514   -0.7888    0.0000 C.3     1  UNL1        0.0242
      5 C           4.8348    0.0729    0.0000 C.3     1  UNL1        0.0298
      6 C           2.9556    0.9779    0.0000 C.3     1  UNL1       -0.0286
      7 C           4.4917   -1.2993    0.0000 C.3     1  UNL1       -0.0481
      8 C           3.6195   -1.7036    0.0000 C.3     1  UNL1       -0.0427
      9 C           4.8535   -0.7888    0.0000 C.2     1  UNL1        0.1431
     10 C           5.0414    0.9779    0.0000 C.3     1  UNL1       -0.0406
     11 C           3.5344    1.7036    0.0000 C.3     1  UNL1       -0.0473
     12 C           2.1677   -0.0329    0.0000 C.3     1  UNL1       -0.0581
     13 C           4.4626    1.7036    0.0000 C.3     1  UNL1       -0.0517
     14 C           5.8297   -0.0283    0.0000 C.3     1  UNL1       -0.0525
     15 C           2.1294    1.5412    0.0000 C.3     1  UNL1       -0.0593
     16 C           2.0000    0.6832    0.0000 C.3     1  UNL1       -0.0593
     17 H           4.5859   -0.5282    0.0000 H       1  UNL1        0.0316
     18 H           2.5478   -0.9303    0.0000 H       1  UNL1        0.0383
     19 H           4.7593   -1.8586    0.0000 H       1  UNL1        0.0269
     20 H           5.0477   -1.0249    0.0000 H       1  UNL1        0.0269
     21 H           3.0639   -1.9788    0.0000 H       1  UNL1        0.0272
     22 H           3.8874   -2.2626    0.0000 H       1  UNL1        0.0272
     23 H           5.6000    0.7089    0.0000 H       1  UNL1        0.0275
     24 H           5.4279    1.4626    0.0000 H       1  UNL1        0.0275
     25 H           3.6723    2.3080    0.0000 H       1  UNL1        0.0271
     26 H           2.9758    1.9726    0.0000 H       1  UNL1        0.0271
     27 H           2.1022    0.5837    0.0000 H       1  UNL1        0.0236
     28 H           1.5512   -0.0984    0.0000 H       1  UNL1        0.0236
     29 H           2.2333   -0.6494    0.0000 H       1  UNL1        0.0236
     30 H           5.0212    1.9726    0.0000 H       1  UNL1        0.0266
     31 H           4.3246    2.3080    0.0000 H       1  UNL1        0.0266
     32 H           5.7669   -0.6451    0.0000 H       1  UNL1        0.0239
     33 H           6.4465   -0.0911    0.0000 H       1  UNL1        0.0239
     34 H           5.8924    0.5885    0.0000 H       1  UNL1        0.0239
     35 H           2.4787    2.0535    0.0000 H       1  UNL1        0.0235
     36 H           1.6172    1.8905    0.0000 H       1  UNL1        0.0235
     37 H           1.7801    1.0290    0.0000 H       1  UNL1        0.0235
     38 H           1.8173    1.2756    0.0000 H       1  UNL1        0.0235
     39 H           1.4075    0.5005    0.0000 H       1  UNL1        0.0235
     40 H           2.1827    0.0907    0.0000 H       1  UNL1        0.0235
@<TRIPOS>BOND
     1     1     9    2
     2     2     3    1
     3     2     4    1
     4     2     6    1
     5     2    12    1
     6     3     5    1
     7     3     7    1
     8     3    17    1
     9     4     8    1
    10     4     9    1
    11     4    18    1
    12     5     9    1
    13     5    10    1
    14     5    14    1
    15     6    11    1
    16     6    15    1
    17     6    16    1
    18     7     8    1
    19     7    19    1
    20     7    20    1
    21     8    21    1
    22     8    22    1
    23    10    13    1
    24    10    23    1
    25    10    24    1
    26    11    13    1
    27    11    25    1
    28    11    26    1
    29    12    27    1
    30    12    28    1
    31    12    29    1
    32    13    30    1
    33    13    31    1
    34    14    32    1
    35    14    33    1
    36    14    34    1
    37    15    35    1
    38    15    36    1
    39    15    37    1
    40    16    38    1
    41    16    39    1
    42    16    40    1
