@<TRIPOS>MOLECULE
IMPHY006359
 21 21 0 0 0
SMALL
GASTEIGER

@<TRIPOS>ATOM
      1 O           4.5576   -1.0116    0.0000 O.3     1  UNL1       -0.4542
      2 O           3.4699    1.3362    0.0000 O.3     1  UNL1       -0.3849
      3 O           5.6454    1.3362    0.0000 O.3     1  UNL1       -0.3783
      4 O           2.5896   -1.7110    0.0000 O.3     1  UNL1       -0.3883
      5 O           6.3177   -0.7329    0.0000 O.2     1  UNL1       -0.2478
      6 C           3.7486   -0.4239    0.0000 C.3     1  UNL1        0.1572
      7 C           4.0576    0.5272    0.0000 C.3     1  UNL1        0.1306
      8 C           5.0576    0.5272    0.0000 C.3     1  UNL1        0.1811
      9 C           2.7976   -0.7329    0.0000 C.3     1  UNL1        0.0918
     10 C           5.3667   -0.4239    0.0000 C.2     1  UNL1        0.3392
     11 C           2.0544   -0.0637    0.0000 C.3     1  UNL1       -0.0354
     12 H           3.6156   -1.2634    0.0000 H       1  UNL1        0.0787
     13 H           3.4453    0.4302    0.0000 H       1  UNL1        0.0663
     14 H           4.7762    1.0796    0.0000 H       1  UNL1        0.0738
     15 H           2.2079   -0.9245    0.0000 H       1  UNL1        0.0628
     16 H           2.4693    0.3970    0.0000 H       1  UNL1        0.0256
     17 H           1.5937    0.3511    0.0000 H       1  UNL1        0.0256
     18 H           1.6396   -0.5245    0.0000 H       1  UNL1        0.0256
     19 H           3.7220    1.9026    0.0000 H       1  UNL1        0.2101
     20 H           6.2620    1.2714    0.0000 H       1  UNL1        0.2106
     21 H           2.0000   -1.9026    0.0000 H       1  UNL1        0.2099
@<TRIPOS>BOND
     1     1     6    1
     2     1    10    1
     3     7     2    1
     4     2    19    1
     5     8     3    1
     6     3    20    1
     7     9     4    1
     8     4    21    1
     9     5    10    2
    10     6     7    1
    11     6     9    1
    12     6    12    1
    13     7     8    1
    14     7    13    1
    15     8    10    1
    16     8    14    1
    17     9    11    1
    18     9    15    1
    19    11    16    1
    20    11    17    1
    21    11    18    1
