@<TRIPOS>MOLECULE
IMPHY001600
 77 81 0 0 0
SMALL
GASTEIGER

@<TRIPOS>ATOM
      1 O           8.5432   -2.7056    0.0000 O.3     1  UNL1       -0.4608
      2 O          10.3122   -2.6190    0.0000 O.2     1  UNL1       -0.2505
      3 O           2.1359    2.6736    0.0000 O.2     1  UNL1       -0.2968
      4 C           7.4758   -0.4707    0.0000 C.3     1  UNL1       -0.0159
      5 C           6.6098   -0.9707    0.0000 C.3     1  UNL1       -0.0017
      6 C           8.2129   -1.1378    0.0000 C.3     1  UNL1        0.0152
      7 C           5.7438    0.5293    0.0000 C.3     1  UNL1       -0.0136
      8 C           5.7438   -0.4707    0.0000 C.2     1  UNL1       -0.0633
      9 C           6.8190   -1.9425    0.0000 C.3     1  UNL1       -0.0057
     10 C           7.8077   -2.0456    0.0000 C.3     1  UNL1        0.1080
     11 C           4.8498    1.0639    0.0000 C.3     1  UNL1       -0.0212
     12 C           7.4758    0.5293    0.0000 C.3     1  UNL1       -0.0459
     13 C           6.6098    1.0293    0.0000 C.3     1  UNL1       -0.0455
     14 C           3.9438    0.5501    0.0000 C.3     1  UNL1       -0.0198
     15 C           9.1953   -1.2445    0.0000 C.3     1  UNL1        0.0634
     16 C           8.3419    0.0293    0.0000 C.3     1  UNL1       -0.0584
     17 C           5.7438   -1.4707    0.0000 C.3     1  UNL1       -0.0552
     18 C           3.9438   -0.4915    0.0000 C.3     1  UNL1       -0.0302
     19 C           4.8749    2.1486    0.0000 C.3     1  UNL1       -0.0401
     20 C           4.8498   -1.0054    0.0000 C.2     1  UNL1       -0.0836
     21 C           3.0000    1.0853    0.0000 C.3     1  UNL1        0.0270
     22 C           5.7197    1.5572    0.0000 C.3     1  UNL1       -0.0587
     23 C           9.3991   -2.2115    0.0000 C.2     1  UNL1        0.3109
     24 C           9.8663   -0.5031    0.0000 C.3     1  UNL1       -0.0363
     25 C           3.9438    2.7056    0.0000 C.3     1  UNL1        0.0069
     26 C           3.0000    2.1703    0.0000 C.2     1  UNL1        0.1392
     27 C           2.0000    1.0815    0.0000 C.3     1  UNL1       -0.0528
     28 C           2.5033    0.2174    0.0000 C.3     1  UNL1       -0.0528
     29 C          10.8439   -0.7136    0.0000 C.3     1  UNL1       -0.0338
     30 C          11.5150    0.0279    0.0000 C.2     1  UNL1       -0.0853
     31 C          12.4926   -0.1826    0.0000 C.2     1  UNL1       -0.0796
     32 C          13.1637    0.5588    0.0000 C.3     1  UNL1       -0.0440
     33 C          12.7991   -1.1344    0.0000 C.3     1  UNL1       -0.0440
     34 H           8.5609   -0.3623    0.0000 H       1  UNL1        0.0350
     35 H           6.4799    0.1043    0.0000 H       1  UNL1        0.0351
     36 H           6.2025   -2.0086    0.0000 H       1  UNL1        0.0309
     37 H           6.8199   -2.5625    0.0000 H       1  UNL1        0.0309
     38 H           7.4630   -2.8226    0.0000 H       1  UNL1        0.0737
     39 H           8.0864    0.4216    0.0000 H       1  UNL1        0.0271
     40 H           7.6879    1.1119    0.0000 H       1  UNL1        0.0271
     41 H           7.0083    1.5042    0.0000 H       1  UNL1        0.0271
     42 H           6.2113    1.5042    0.0000 H       1  UNL1        0.0271
     43 H           3.2093    0.1223    0.0000 H       1  UNL1        0.0318
     44 H           9.7938   -1.4063    0.0000 H       1  UNL1        0.0418
     45 H           8.6519   -0.5077    0.0000 H       1  UNL1        0.0235
     46 H           8.8788    0.3393    0.0000 H       1  UNL1        0.0235
     47 H           8.0319    0.5662    0.0000 H       1  UNL1        0.0235
     48 H           5.4338   -0.9338    0.0000 H       1  UNL1        0.0238
     49 H           5.2068   -1.7807    0.0000 H       1  UNL1        0.0238
     50 H           6.0538   -2.0077    0.0000 H       1  UNL1        0.0238
     51 H           3.3329   -0.3855    0.0000 H       1  UNL1        0.0311
     52 H           3.7347   -1.0752    0.0000 H       1  UNL1        0.0311
     53 H           5.4832    2.0284    0.0000 H       1  UNL1        0.0275
     54 H           5.0974    2.7273    0.0000 H       1  UNL1        0.0275
     55 H           4.8570   -1.6254    0.0000 H       1  UNL1        0.0572
     56 H           6.0256    1.0179    0.0000 H       1  UNL1        0.0235
     57 H           6.2590    1.8631    0.0000 H       1  UNL1        0.0235
     58 H           5.4138    2.0966    0.0000 H       1  UNL1        0.0235
     59 H          10.1001    0.0711    0.0000 H       1  UNL1        0.0276
     60 H           9.3414   -0.1732    0.0000 H       1  UNL1        0.0276
     61 H           4.3484    3.1754    0.0000 H       1  UNL1        0.0342
     62 H           3.5502    3.1846    0.0000 H       1  UNL1        0.0342
     63 H           1.9976    1.7015    0.0000 H       1  UNL1        0.0239
     64 H           1.3800    1.0791    0.0000 H       1  UNL1        0.0239
     65 H           2.0024    0.4615    0.0000 H       1  UNL1        0.0239
     66 H           1.9652    0.5253    0.0000 H       1  UNL1        0.0239
     67 H           2.1954   -0.3207    0.0000 H       1  UNL1        0.0239
     68 H           3.0415   -0.0905    0.0000 H       1  UNL1        0.0239
     69 H          10.6102   -1.2878    0.0000 H       1  UNL1        0.0308
     70 H          11.3689   -1.0435    0.0000 H       1  UNL1        0.0308
     71 H          11.3249    0.6180    0.0000 H       1  UNL1        0.0571
     72 H          12.2090   -1.3245    0.0000 H       1  UNL1        0.0274
     73 H          12.9892   -1.7246    0.0000 H       1  UNL1        0.0274
     74 H          13.3893   -0.9444    0.0000 H       1  UNL1        0.0274
     75 H          13.6233    0.1428    0.0000 H       1  UNL1        0.0274
     76 H          13.5797    1.0185    0.0000 H       1  UNL1        0.0274
     77 H          12.7040    0.9749    0.0000 H       1  UNL1        0.0274
@<TRIPOS>BOND
     1     1    10    1
     2     1    23    1
     3     2    23    2
     4     3    26    2
     5     4     5    1
     6     4     6    1
     7     4    12    1
     8     4    16    1
     9     5     8    1
    10     5     9    1
    11     5    17    1
    12     6    10    1
    13     6    15    1
    14     6    34    1
    15     7     8    1
    16     7    11    1
    17     7    13    1
    18     7    35    1
    19     8    20    2
    20     9    10    1
    21     9    36    1
    22     9    37    1
    23    10    38    1
    24    11    14    1
    25    11    19    1
    26    11    22    1
    27    12    13    1
    28    12    39    1
    29    12    40    1
    30    13    41    1
    31    13    42    1
    32    14    18    1
    33    14    21    1
    34    14    43    1
    35    15    23    1
    36    15    24    1
    37    15    44    1
    38    16    45    1
    39    16    46    1
    40    16    47    1
    41    17    48    1
    42    17    49    1
    43    17    50    1
    44    18    20    1
    45    18    51    1
    46    18    52    1
    47    19    25    1
    48    19    53    1
    49    19    54    1
    50    20    55    1
    51    21    26    1
    52    21    27    1
    53    21    28    1
    54    22    56    1
    55    22    57    1
    56    22    58    1
    57    24    29    1
    58    24    59    1
    59    24    60    1
    60    25    26    1
    61    25    61    1
    62    25    62    1
    63    27    63    1
    64    27    64    1
    65    27    65    1
    66    28    66    1
    67    28    67    1
    68    28    68    1
    69    29    30    1
    70    29    69    1
    71    29    70    1
    72    30    31    2
    73    30    71    1
    74    31    32    1
    75    31    33    1
    76    32    75    1
    77    32    76    1
    78    32    77    1
    79    33    72    1
    80    33    73    1
    81    33    74    1
