@<TRIPOS>MOLECULE
IMPHY017574
 51 53 0 0 0
SMALL
GASTEIGER

@<TRIPOS>ATOM
      1 O           2.0000   -1.9612    0.0000 O.2     1  UNL1       -0.2968
      2 C           4.6641   -0.4370    0.0000 C.3     1  UNL1       -0.0212
      3 C           4.6641   -1.4370    0.0000 C.3     1  UNL1       -0.0198
      4 C           5.5301    0.0630    0.0000 C.3     1  UNL1       -0.0141
      5 C           3.7702   -1.9717    0.0000 C.3     1  UNL1        0.0270
      6 C           3.7702    0.0976    0.0000 C.3     1  UNL1       -0.0401
      7 C           6.3961   -0.4370    0.0000 C.2     1  UNL1       -0.0690
      8 C           5.5301   -1.9370    0.0000 C.3     1  UNL1       -0.0303
      9 C           5.5141    1.1045    0.0000 C.3     1  UNL1       -0.0452
     10 C           4.6641    0.5630    0.0000 C.3     1  UNL1       -0.0587
     11 C           7.3142    1.1114    0.0000 C.3     1  UNL1       -0.0106
     12 C           2.8641   -0.4162    0.0000 C.3     1  UNL1        0.0069
     13 C           7.3062    0.0698    0.0000 C.3     1  UNL1       -0.0226
     14 C           6.4121    1.6322    0.0000 C.3     1  UNL1       -0.0433
     15 C           6.3961   -1.4370    0.0000 C.2     1  UNL1       -0.0841
     16 C           2.8641   -1.4578    0.0000 C.2     1  UNL1        0.1392
     17 C           3.2802   -2.8434    0.0000 C.3     1  UNL1       -0.0528
     18 C           4.2801   -2.8319    0.0000 C.3     1  UNL1       -0.0528
     19 C           8.3142    1.1076    0.0000 C.3     1  UNL1       -0.0558
     20 C           7.8175    1.9755    0.0000 C.2     1  UNL1       -0.0849
     21 C           7.3209    2.8434    0.0000 C.2     1  UNL1       -0.1021
     22 H           4.6689   -2.0570    0.0000 H       1  UNL1        0.0318
     23 H           6.0647    0.3771    0.0000 H       1  UNL1        0.0351
     24 H           4.1748    0.5674    0.0000 H       1  UNL1        0.0275
     25 H           3.3765    0.5766    0.0000 H       1  UNL1        0.0275
     26 H           5.1316   -2.4120    0.0000 H       1  UNL1        0.0311
     27 H           5.9286   -2.4120    0.0000 H       1  UNL1        0.0311
     28 H           5.2960    1.6849    0.0000 H       1  UNL1        0.0271
     29 H           4.9049    0.9890    0.0000 H       1  UNL1        0.0271
     30 H           5.2841    0.5630    0.0000 H       1  UNL1        0.0235
     31 H           4.6641    1.1830    0.0000 H       1  UNL1        0.0235
     32 H           4.0441    0.5630    0.0000 H       1  UNL1        0.0235
     33 H           2.6550    0.1675    0.0000 H       1  UNL1        0.0342
     34 H           2.2532   -0.5223    0.0000 H       1  UNL1        0.0342
     35 H           7.5107   -0.5155    0.0000 H       1  UNL1        0.0318
     36 H           7.9178    0.1712    0.0000 H       1  UNL1        0.0318
     37 H           6.8094    2.1082    0.0000 H       1  UNL1        0.0274
     38 H           6.0111    2.1051    0.0000 H       1  UNL1        0.0274
     39 H           6.9331   -1.7470    0.0000 H       1  UNL1        0.0572
     40 H           2.7397   -2.5397    0.0000 H       1  UNL1        0.0239
     41 H           2.9764   -3.3839    0.0000 H       1  UNL1        0.0239
     42 H           3.8207   -3.1472    0.0000 H       1  UNL1        0.0239
     43 H           3.7468   -3.1481    0.0000 H       1  UNL1        0.0239
     44 H           4.5963   -3.3652    0.0000 H       1  UNL1        0.0239
     45 H           4.8134   -2.5157    0.0000 H       1  UNL1        0.0239
     46 H           8.3118    0.4876    0.0000 H       1  UNL1        0.0238
     47 H           8.9342    1.1052    0.0000 H       1  UNL1        0.0238
     48 H           8.3166    1.7276    0.0000 H       1  UNL1        0.0238
     49 H           8.4375    1.9731    0.0000 H       1  UNL1        0.0572
     50 H           7.6329    3.3792    0.0000 H       1  UNL1        0.0532
     51 H           6.7009    2.8458    0.0000 H       1  UNL1        0.0532
@<TRIPOS>BOND
     1     1    16    2
     2     2     3    1
     3     2     4    1
     4     2     6    1
     5     2    10    1
     6     3     5    1
     7     3     8    1
     8     3    22    1
     9     4     7    1
    10     4     9    1
    11     4    23    1
    12     5    16    1
    13     5    17    1
    14     5    18    1
    15     6    12    1
    16     6    24    1
    17     6    25    1
    18     7    13    1
    19     7    15    2
    20     8    15    1
    21     8    26    1
    22     8    27    1
    23     9    14    1
    24     9    28    1
    25     9    29    1
    26    10    30    1
    27    10    31    1
    28    10    32    1
    29    11    13    1
    30    11    14    1
    31    11    19    1
    32    11    20    1
    33    12    16    1
    34    12    33    1
    35    12    34    1
    36    13    35    1
    37    13    36    1
    38    14    37    1
    39    14    38    1
    40    15    39    1
    41    17    40    1
    42    17    41    1
    43    17    42    1
    44    18    43    1
    45    18    44    1
    46    18    45    1
    47    19    46    1
    48    19    47    1
    49    19    48    1
    50    20    21    2
    51    20    49    1
    52    21    50    1
    53    21    51    1
