@<TRIPOS>MOLECULE
IMPHY014199
 29 31 0 0 0
SMALL
GASTEIGER

@<TRIPOS>ATOM
      1 O           8.0321    0.2078    0.0000 O.3     1  UNL1       -0.4948
      2 N           4.5274    1.1203    0.0000 N.ar    1  UNL1       -0.3540
      3 C           5.0274   -0.4185    0.0000 C.ar    1  UNL1        0.0079
      4 C           5.3364    0.5325    0.0000 C.ar    1  UNL1        0.0510
      5 C           4.0274   -0.4185    0.0000 C.ar    1  UNL1        0.0074
      6 C           3.7183    0.5325    0.0000 C.ar    1  UNL1        0.0475
      7 C           5.7123   -1.2033    0.0000 C.ar    1  UNL1       -0.0456
      8 C           6.7328   -0.9946    0.0000 C.ar    1  UNL1       -0.0081
      9 C           6.3518    0.7648    0.0000 C.ar    1  UNL1        0.0042
     10 C           7.0547   -0.0039    0.0000 C.ar    1  UNL1        0.1250
     11 C           3.3424   -1.2033    0.0000 C.ar    1  UNL1       -0.0520
     12 C           2.7029    0.7648    0.0000 C.ar    1  UNL1       -0.0378
     13 C           7.3991   -1.7403    0.0000 C.3     1  UNL1       -0.0362
     14 C           2.3219   -0.9946    0.0000 C.ar    1  UNL1       -0.0611
     15 C           2.0000   -0.0039    0.0000 C.ar    1  UNL1       -0.0598
     16 C           8.3374    1.1600    0.0000 C.3     1  UNL1        0.0788
     17 H           4.5274    1.7403    0.0000 H       1  UNL1        0.1659
     18 H           5.5139   -1.7907    0.0000 H       1  UNL1        0.0628
     19 H           6.5365    1.3566    0.0000 H       1  UNL1        0.0675
     20 H           3.5408   -1.7907    0.0000 H       1  UNL1        0.0624
     21 H           2.5182    1.3566    0.0000 H       1  UNL1        0.0638
     22 H           6.9368   -2.1534    0.0000 H       1  UNL1        0.0279
     23 H           7.8122   -2.2026    0.0000 H       1  UNL1        0.0279
     24 H           7.8614   -1.3272    0.0000 H       1  UNL1        0.0279
     25 H           1.9088   -1.4569    0.0000 H       1  UNL1        0.0618
     26 H           1.3940    0.1273    0.0000 H       1  UNL1        0.0618
     27 H           8.9278    0.9707    0.0000 H       1  UNL1        0.0660
     28 H           8.5267    1.7504    0.0000 H       1  UNL1        0.0660
     29 H           7.7470    1.3493    0.0000 H       1  UNL1        0.0660
@<TRIPOS>BOND
     1     1    10    1
     2     1    16    1
     3     2     4   ar
     4     2     6   ar
     5     2    17    1
     6     3     4   ar
     7     3     5   ar
     8     3     7   ar
     9     4     9   ar
    10     5     6   ar
    11     5    11   ar
    12     6    12   ar
    13     7     8   ar
    14     7    18    1
    15     8    10   ar
    16     8    13    1
    17     9    10   ar
    18     9    19    1
    19    11    14   ar
    20    11    20    1
    21    12    15   ar
    22    12    21    1
    23    13    22    1
    24    13    23    1
    25    13    24    1
    26    14    15   ar
    27    14    25    1
    28    15    26    1
    29    16    27    1
    30    16    28    1
    31    16    29    1
