@<TRIPOS>MOLECULE
IMPHY010418
 101 104 0 0 0
SMALL
GASTEIGER

@<TRIPOS>ATOM
      1 CL          7.1094    1.2832    0.0000 Cl      1  UNL1       -0.0778
      2 O           5.9161    0.4168    0.0000 O.3     1  UNL1       -0.3608
      3 O           5.8143   -1.0862    0.0000 O.3     1  UNL1       -0.4566
      4 O           4.6328    3.1583    0.0000 O.3     1  UNL1       -0.4465
      5 O           6.3648    5.1583    0.0000 O.3     1  UNL1       -0.3686
      6 O           7.6534    5.5646    0.0000 O.3     1  UNL1       -0.3712
      7 O           8.5404   -2.3388    0.0000 O.2     1  UNL1       -0.2751
      8 O           3.7667    4.6583    0.0000 O.2     1  UNL1       -0.2264
      9 O           6.7449   -2.5470    0.0000 O.2     1  UNL1       -0.2487
     10 O           3.3277   -3.6971    0.0000 O.2     1  UNL1       -0.2753
     11 O          11.4629    1.7922    0.0000 O.3     1  UNL1       -0.3828
     12 O           7.1093    2.3058    0.0000 O.3     1  UNL1       -0.4936
     13 N           5.4988    4.6583    0.0000 N.am    1  UNL1       -0.2504
     14 N           8.8648   -0.7078    0.0000 N.am    1  UNL1       -0.2729
     15 N           5.0582   -3.6216    0.0000 N.am    1  UNL1       -0.2911
     16 C           6.9165    0.4171    0.0000 C.3     1  UNL1        0.1306
     17 C           6.4165    1.2831    0.0000 C.3     1  UNL1        0.0977
     18 C           5.4988    1.6583    0.0000 C.3     1  UNL1        0.0226
     19 C           6.6577   -0.5488    0.0000 C.3     1  UNL1        0.1423
     20 C           5.4988    2.6583    0.0000 C.3     1  UNL1        0.1139
     21 C           7.7826   -0.0828    0.0000 C.3     1  UNL1       -0.0298
     22 C           4.4989    1.6714    0.0000 C.3     1  UNL1       -0.0566
     23 C           6.3648    3.1583    0.0000 C.3     1  UNL1        0.0335
     24 C           7.1577   -1.4149    0.0000 C.3     1  UNL1        0.0644
     25 C           6.3648    4.1583    0.0000 C.3     1  UNL1        0.1684
     26 C           7.2308    4.6583    0.0000 C.3     1  UNL1        0.1223
     27 C           8.1577   -1.4149    0.0000 C.2     1  UNL1        0.2232
     28 C           4.6328    4.1583    0.0000 C.2     1  UNL1        0.4027
     29 C           5.8579   -2.0852    0.0000 C.2     1  UNL1        0.3279
     30 C           5.0145   -2.6225    0.0000 C.3     1  UNL1        0.1198
     31 C           8.0968    4.1583    0.0000 C.2     1  UNL1       -0.0513
     32 C           8.8648    0.2922    0.0000 C.ar    1  UNL1        0.0582
     33 C           9.7887   -1.0904    0.0000 C.3     1  UNL1        0.0083
     34 C           4.1275   -2.1608    0.0000 C.3     1  UNL1       -0.0360
     35 C           9.0968    4.1583    0.0000 C.2     1  UNL1       -0.0631
     36 C           8.6496    5.6517    0.0000 C.3     1  UNL1        0.0374
     37 C           9.7308    0.7922    0.0000 C.ar    1  UNL1       -0.0327
     38 C           7.9792    0.7899    0.0000 C.ar    1  UNL1        0.1038
     39 C           4.2148   -4.1588    0.0000 C.2     1  UNL1        0.2186
     40 C           5.9452   -4.0833    0.0000 C.3     1  UNL1        0.0040
     41 C           9.5968    3.2922    0.0000 C.2     1  UNL1       -0.0602
     42 C           9.7308    1.7922    0.0000 C.ar    1  UNL1       -0.0098
     43 C          10.5968    2.2922    0.0000 C.3     1  UNL1        0.1015
     44 C          10.5968    3.2922    0.0000 C.2     1  UNL1       -0.0402
     45 C           4.2584   -5.1579    0.0000 C.3     1  UNL1        0.0301
     46 C           7.9753    1.8058    0.0000 C.ar    1  UNL1        0.1405
     47 C           8.8570    2.3103    0.0000 C.ar    1  UNL1       -0.0124
     48 C          11.3040    3.9993    0.0000 C.3     1  UNL1       -0.0408
     49 C           3.4150   -5.6952    0.0000 C.3     1  UNL1       -0.0544
     50 C           5.1454   -5.6196    0.0000 C.3     1  UNL1       -0.0544
     51 C           7.1093    3.3058    0.0000 C.3     1  UNL1        0.0789
     52 H           6.8417    2.0191    0.0000 H       1  UNL1        0.0630
     53 H           5.0940    1.1886    0.0000 H       1  UNL1        0.0360
     54 H           6.0430   -0.4679    0.0000 H       1  UNL1        0.0769
     55 H           4.7626    2.2333    0.0000 H       1  UNL1        0.0739
     56 H           8.0925    0.4542    0.0000 H       1  UNL1        0.0259
     57 H           8.3196   -0.3927    0.0000 H       1  UNL1        0.0259
     58 H           7.4727   -0.6198    0.0000 H       1  UNL1        0.0259
     59 H           4.4907    1.0514    0.0000 H       1  UNL1        0.0234
     60 H           3.8789    1.6795    0.0000 H       1  UNL1        0.0234
     61 H           4.5070    2.2913    0.0000 H       1  UNL1        0.0234
     62 H           6.9754    3.2659    0.0000 H       1  UNL1        0.0346
     63 H           6.5768    2.5756    0.0000 H       1  UNL1        0.0346
     64 H           7.2654   -2.0255    0.0000 H       1  UNL1        0.0396
     65 H           6.5751   -1.6269    0.0000 H       1  UNL1        0.0396
     66 H           7.0704    5.2571    0.0000 H       1  UNL1        0.0686
     67 H           5.1888    5.1952    0.0000 H       1  UNL1        0.1549
     68 H           6.0548    5.6952    0.0000 H       1  UNL1        0.2121
     69 H           5.5645   -2.9088    0.0000 H       1  UNL1        0.0613
     70 H           7.9364    3.5594    0.0000 H       1  UNL1        0.0599
     71 H          10.0259   -0.5176    0.0000 H       1  UNL1        0.0433
     72 H          10.3615   -1.3277    0.0000 H       1  UNL1        0.0433
     73 H           9.5514   -1.6633    0.0000 H       1  UNL1        0.0433
     74 H           3.8412   -2.7107    0.0000 H       1  UNL1        0.0253
     75 H           3.5776   -1.8745    0.0000 H       1  UNL1        0.0253
     76 H           4.4138   -1.6108    0.0000 H       1  UNL1        0.0253
     77 H           9.4068    4.6952    0.0000 H       1  UNL1        0.0615
     78 H           8.5956    6.2694    0.0000 H       1  UNL1        0.0524
     79 H           9.2673    5.7058    0.0000 H       1  UNL1        0.0524
     80 H           8.7037    5.0341    0.0000 H       1  UNL1        0.0524
     81 H          10.2678    0.4822    0.0000 H       1  UNL1        0.0640
     82 H           6.2314   -3.5334    0.0000 H       1  UNL1        0.0429
     83 H           6.4951   -4.3696    0.0000 H       1  UNL1        0.0429
     84 H           5.6589   -4.6332    0.0000 H       1  UNL1        0.0429
     85 H           9.2868    2.7553    0.0000 H       1  UNL1        0.0618
     86 H          10.5968    1.6722    0.0000 H       1  UNL1        0.0691
     87 H           3.7084   -4.8716    0.0000 H       1  UNL1        0.0389
     88 H           8.8618    2.9303    0.0000 H       1  UNL1        0.0658
     89 H          10.8655    4.4377    0.0000 H       1  UNL1        0.0275
     90 H          11.7424    4.4377    0.0000 H       1  UNL1        0.0275
     91 H          11.7424    3.5609    0.0000 H       1  UNL1        0.0275
     92 H           5.4317   -5.0697    0.0000 H       1  UNL1        0.0237
     93 H           5.6953   -5.9059    0.0000 H       1  UNL1        0.0237
     94 H           4.8591   -6.1696    0.0000 H       1  UNL1        0.0237
     95 H           3.7481   -6.2181    0.0000 H       1  UNL1        0.0237
     96 H           2.8921   -6.0283    0.0000 H       1  UNL1        0.0237
     97 H           3.0819   -5.1723    0.0000 H       1  UNL1        0.0237
     98 H          11.9998    2.1022    0.0000 H       1  UNL1        0.2107
     99 H           6.4893    3.3058    0.0000 H       1  UNL1        0.0660
    100 H           7.1093    3.9258    0.0000 H       1  UNL1        0.0660
    101 H           7.7293    3.3058    0.0000 H       1  UNL1        0.0660
@<TRIPOS>BOND
     1     1    38    1
     2     2    16    1
     3     2    17    1
     4    19     3    1
     5     3    29    1
     6     4    20    1
     7     4    28    1
     8    25     5    1
     9     5    68    1
    10    26     6    1
    11     6    36    1
    12     7    27    2
    13     8    28    2
    14     9    29    2
    15    10    39    2
    16    11    43    1
    17    11    98    1
    18    12    46    1
    19    12    51    1
    20    13    25    1
    21    13    28   am
    22    13    67    1
    23    14    27   am
    24    14    32    1
    25    14    33    1
    26    30    15    1
    27    15    39   am
    28    15    40    1
    29    16    17    1
    30    16    19    1
    31    16    21    1
    32    17    18    1
    33    17    52    1
    34    18    20    1
    35    18    22    1
    36    18    53    1
    37    19    24    1
    38    19    54    1
    39    20    23    1
    40    20    55    1
    41    21    56    1
    42    21    57    1
    43    21    58    1
    44    22    59    1
    45    22    60    1
    46    22    61    1
    47    23    25    1
    48    23    62    1
    49    23    63    1
    50    24    27    1
    51    24    64    1
    52    24    65    1
    53    25    26    1
    54    26    31    1
    55    26    66    1
    56    29    30    1
    57    30    34    1
    58    30    69    1
    59    31    35    2
    60    31    70    1
    61    32    37   ar
    62    32    38   ar
    63    33    71    1
    64    33    72    1
    65    33    73    1
    66    34    74    1
    67    34    75    1
    68    34    76    1
    69    35    41    1
    70    35    77    1
    71    36    78    1
    72    36    79    1
    73    36    80    1
    74    37    42   ar
    75    37    81    1
    76    38    46   ar
    77    39    45    1
    78    40    82    1
    79    40    83    1
    80    40    84    1
    81    41    44    2
    82    41    85    1
    83    42    43    1
    84    42    47   ar
    85    43    44    1
    86    43    86    1
    87    44    48    1
    88    45    49    1
    89    45    50    1
    90    45    87    1
    91    46    47   ar
    92    47    88    1
    93    48    89    1
    94    48    90    1
    95    48    91    1
    96    49    95    1
    97    49    96    1
    98    49    97    1
    99    50    92    1
   100    50    93    1
   101    50    94    1
   102    51    99    1
   103    51   100    1
   104    51   101    1
