@<TRIPOS>MOLECULE
IMPHY015093
 33 35 0 0 0
SMALL
GASTEIGER

@<TRIPOS>ATOM
      1 O           4.3083   -2.1249    0.0000 O.3     1  UNL1       -0.4831
      2 O           2.5381   -0.0661    0.0000 O.3     1  UNL1       -0.3849
      3 O           4.3198    0.9443    0.0000 O.3     1  UNL1       -0.3842
      4 O           6.0522    0.9513    0.0000 O.2     1  UNL1       -0.4217
      5 O           6.9464    2.4790    0.0000 O.2     1  UNL1       -0.2452
      6 C           3.4022   -1.6111    0.0000 C.3     1  UNL1        0.1335
      7 C           3.4022   -0.5694    0.0000 C.3     1  UNL1        0.1243
      8 C           4.3083   -0.0556    0.0000 C.3     1  UNL1        0.1166
      9 C           5.2022   -0.5902    0.0000 C.ar    1  UNL1        0.0680
     10 C           5.2022   -1.5902    0.0000 C.ar    1  UNL1        0.1307
     11 C           2.4022   -1.6149    0.0000 C.3     1  UNL1       -0.0226
     12 C           2.9056   -2.4790    0.0000 C.3     1  UNL1       -0.0226
     13 C           6.0682   -0.0902    0.0000 C.ar    1  UNL1        0.1482
     14 C           6.0682   -2.0902    0.0000 C.ar    1  UNL1       -0.0188
     15 C           6.9343   -0.5902    0.0000 C.ar    1  UNL1        0.0182
     16 C           6.9343   -1.5902    0.0000 C.ar    1  UNL1       -0.0476
     17 C           7.8443   -0.0834    0.0000 C.ar    1  UNL1       -0.0443
     18 C           6.9502    1.4790    0.0000 C.ar    1  UNL1        0.3372
     19 C           7.8523    0.9582    0.0000 C.ar    1  UNL1        0.0236
     20 H           2.8647   -0.8784    0.0000 H       1  UNL1        0.0663
     21 H           3.7744    0.2596    0.0000 H       1  UNL1        0.0673
     22 H           2.3998   -0.9949    0.0000 H       1  UNL1        0.0269
     23 H           1.7822   -1.6173    0.0000 H       1  UNL1        0.0269
     24 H           2.4046   -2.2349    0.0000 H       1  UNL1        0.0269
     25 H           2.3674   -2.1711    0.0000 H       1  UNL1        0.0269
     26 H           2.5976   -3.0171    0.0000 H       1  UNL1        0.0269
     27 H           3.4437   -2.7869    0.0000 H       1  UNL1        0.0269
     28 H           6.0682   -2.7102    0.0000 H       1  UNL1        0.0654
     29 H           2.0000   -0.3740    0.0000 H       1  UNL1        0.2101
     30 H           3.7865    1.2605    0.0000 H       1  UNL1        0.2103
     31 H           7.4712   -1.9002    0.0000 H       1  UNL1        0.0626
     32 H           8.3776   -0.3996    0.0000 H       1  UNL1        0.0627
     33 H           8.3904    1.2661    0.0000 H       1  UNL1        0.0689
@<TRIPOS>BOND
     1     1     6    1
     2     1    10    1
     3     7     2    1
     4     2    29    1
     5     8     3    1
     6     3    30    1
     7     4    13   ar
     8     4    18   ar
     9     5    18    2
    10     6     7    1
    11     6    11    1
    12     6    12    1
    13     7     8    1
    14     7    20    1
    15     8     9    1
    16     8    21    1
    17     9    10   ar
    18     9    13   ar
    19    10    14   ar
    20    11    22    1
    21    11    23    1
    22    11    24    1
    23    12    25    1
    24    12    26    1
    25    12    27    1
    26    13    15   ar
    27    14    16   ar
    28    14    28    1
    29    15    16   ar
    30    15    17   ar
    31    16    31    1
    32    17    19   ar
    33    17    32    1
    34    18    19   ar
    35    19    33    1
