@<TRIPOS>MOLECULE
IMPHY006842
 17 18 0 0 0
SMALL
GASTEIGER

@<TRIPOS>ATOM
      1 N           4.6660   -1.0000    0.0000 N.ar    1  UNL1       -0.2550
      2 C           3.8000    0.5000    0.0000 C.ar    1  UNL1        0.0004
      3 C           3.8000   -0.5000    0.0000 C.ar    1  UNL1        0.0710
      4 C           2.9061    1.0347    0.0000 C.ar    1  UNL1       -0.0526
      5 C           4.6660    1.0000    0.0000 C.ar    1  UNL1       -0.0511
      6 C           2.9061   -1.0347    0.0000 C.ar    1  UNL1       -0.0357
      7 C           2.0000    0.5208    0.0000 C.ar    1  UNL1       -0.0611
      8 C           2.0000   -0.5208    0.0000 C.ar    1  UNL1       -0.0597
      9 C           5.5321    0.5000    0.0000 C.ar    1  UNL1       -0.0430
     10 C           5.5321   -0.5000    0.0000 C.ar    1  UNL1        0.0283
     11 H           2.9132    1.6546    0.0000 H       1  UNL1        0.0624
     12 H           4.6660    1.6200    0.0000 H       1  UNL1        0.0625
     13 H           2.9132   -1.6546    0.0000 H       1  UNL1        0.0639
     14 H           1.4643    0.8329    0.0000 H       1  UNL1        0.0618
     15 H           1.4643   -0.8329    0.0000 H       1  UNL1        0.0618
     16 H           6.0690    0.8100    0.0000 H       1  UNL1        0.0633
     17 H           6.0690   -0.8100    0.0000 H       1  UNL1        0.0830
@<TRIPOS>BOND
     1     1     3   ar
     2     1    10   ar
     3     2     3   ar
     4     2     4   ar
     5     2     5   ar
     6     3     6   ar
     7     4     7   ar
     8     4    11    1
     9     5     9   ar
    10     5    12    1
    11     6     8   ar
    12     6    13    1
    13     7     8   ar
    14     7    14    1
    15     8    15    1
    16     9    10   ar
    17     9    16    1
    18    10    17    1
