@<TRIPOS>MOLECULE
IMPHY010554
 87 92 0 0 0
SMALL
GASTEIGER

@<TRIPOS>ATOM
      1 O           3.6747   -1.5356    0.0000 O.3     1  UNL1       -0.3730
      2 O           5.7330   -2.8614    0.0000 O.3     1  UNL1       -0.3656
      3 O           6.4116    1.6418    0.0000 O.3     1  UNL1       -0.4574
      4 O           2.8718    1.6555    0.0000 O.3     1  UNL1       -0.4608
      5 O           8.9879    0.1104    0.0000 O.3     1  UNL1       -0.4679
      6 O           8.1219   -1.3896    0.0000 O.2     1  UNL1       -0.2509
      7 O           5.5630    3.1518    0.0000 O.2     1  UNL1       -0.2453
      8 O          10.8353   -3.7084    0.0000 O.2     1  UNL1       -0.4707
      9 O           3.7320    3.1588    0.0000 O.2     1  UNL1       -0.2512
     10 C           5.5238    0.1104    0.0000 C.3     1  UNL1        0.0152
     11 C           4.6578   -0.3896    0.0000 C.3     1  UNL1        0.0077
     12 C           6.3898   -1.3896    0.0000 C.3     1  UNL1        0.0242
     13 C           6.3898   -0.3896    0.0000 C.3     1  UNL1       -0.0102
     14 C           3.7478    0.1172    0.0000 C.3     1  UNL1        0.0343
     15 C           4.6578   -1.3896    0.0000 C.3     1  UNL1        0.0897
     16 C           5.5238   -1.8896    0.0000 C.3     1  UNL1        0.0952
     17 C           5.5399    1.1519    0.0000 C.3     1  UNL1        0.1127
     18 C           3.7398    1.1588    0.0000 C.3     1  UNL1        0.1142
     19 C           7.1268   -2.0567    0.0000 C.2     1  UNL1       -0.0329
     20 C           3.1610   -0.6849    0.0000 C.3     1  UNL1        0.0572
     21 C           4.6418    1.6796    0.0000 C.3     1  UNL1        0.0227
     22 C           6.7217   -2.9645    0.0000 C.3     1  UNL1        0.0819
     23 C           6.3898    0.6104    0.0000 C.3     1  UNL1       -0.0555
     24 C           7.2558    0.1104    0.0000 C.3     1  UNL1        0.0492
     25 C           7.2558   -0.8896    0.0000 C.3     1  UNL1       -0.0530
     26 C           2.7478    0.1057    0.0000 C.3     1  UNL1       -0.0537
     27 C           8.1093   -2.1634    0.0000 C.2     1  UNL1       -0.0628
     28 C           7.4572   -3.6245    0.0000 C.3     1  UNL1       -0.0121
     29 C           8.3130   -3.1304    0.0000 C.3     1  UNL1        0.0109
     30 C           8.1219   -0.3896    0.0000 C.2     1  UNL1        0.3071
     31 C           8.7803   -1.4220    0.0000 C.3     1  UNL1       -0.0429
     32 C           9.2262   -3.5379    0.0000 C.ar    1  UNL1       -0.0025
     33 C           6.4232    2.6418    0.0000 C.2     1  UNL1        0.3348
     34 C           2.8680    2.6555    0.0000 C.2     1  UNL1        0.3042
     35 C           9.4333   -4.5162    0.0000 C.ar    1  UNL1       -0.0202
     36 C          10.0927   -3.0386    0.0000 C.ar    1  UNL1        0.0954
     37 C           7.2949    3.1317    0.0000 C.2     1  UNL1        0.0293
     38 C           2.0000    3.1521    0.0000 C.3     1  UNL1        0.0332
     39 C          10.4277   -4.6216    0.0000 C.ar    1  UNL1        0.0920
     40 C           9.8539   -0.3896    0.0000 C.3     1  UNL1        0.0817
     41 C           8.1551    2.6217    0.0000 C.3     1  UNL1       -0.0333
     42 C           7.3065    4.1316    0.0000 C.2     1  UNL1       -0.0774
     43 C           8.1782    4.6216    0.0000 C.3     1  UNL1       -0.0461
     44 H           4.6578    0.4604    0.0000 H       1  UNL1        0.0340
     45 H           6.9268   -0.6996    0.0000 H       1  UNL1        0.0322
     46 H           4.4988   -2.2246    0.0000 H       1  UNL1        0.0625
     47 H           4.8368   -2.3901    0.0000 H       1  UNL1        0.0631
     48 H           5.5458    1.7718    0.0000 H       1  UNL1        0.0741
     49 H           3.7386    1.7788    0.0000 H       1  UNL1        0.0741
     50 H           2.7131   -0.2561    0.0000 H       1  UNL1        0.0567
     51 H           2.6770   -1.0724    0.0000 H       1  UNL1        0.0567
     52 H           5.0428    2.1525    0.0000 H       1  UNL1        0.0337
     53 H           4.2445    2.1556    0.0000 H       1  UNL1        0.0337
     54 H           6.3770   -3.7415    0.0000 H       1  UNL1        0.0644
     55 H           6.6998    0.0734    0.0000 H       1  UNL1        0.0236
     56 H           6.9268    0.9204    0.0000 H       1  UNL1        0.0236
     57 H           6.0798    1.1473    0.0000 H       1  UNL1        0.0236
     58 H           7.6544    0.5853    0.0000 H       1  UNL1        0.0381
     59 H           6.8573    0.5853    0.0000 H       1  UNL1        0.0381
     60 H           7.5658   -1.4266    0.0000 H       1  UNL1        0.0239
     61 H           7.7928   -0.5796    0.0000 H       1  UNL1        0.0239
     62 H           6.9458   -0.3527    0.0000 H       1  UNL1        0.0239
     63 H           2.7407    0.7256    0.0000 H       1  UNL1        0.0237
     64 H           2.1279    0.0985    0.0000 H       1  UNL1        0.0237
     65 H           2.7550   -0.5143    0.0000 H       1  UNL1        0.0237
     66 H           6.9970   -4.0399    0.0000 H       1  UNL1        0.0302
     67 H           7.8220   -4.1258    0.0000 H       1  UNL1        0.0302
     68 H           8.3452   -3.7495    0.0000 H       1  UNL1        0.0396
     69 H           9.2400   -1.8381    0.0000 H       1  UNL1        0.0275
     70 H           9.1964   -0.9623    0.0000 H       1  UNL1        0.0275
     71 H           8.3206   -1.0059    0.0000 H       1  UNL1        0.0275
     72 H           9.0180   -4.9766    0.0000 H       1  UNL1        0.0652
     73 H          10.1580   -2.4221    0.0000 H       1  UNL1        0.1032
     74 H           2.3079    3.6902    0.0000 H       1  UNL1        0.0342
     75 H           1.4619    3.4601    0.0000 H       1  UNL1        0.0342
     76 H           1.6921    2.6140    0.0000 H       1  UNL1        0.0342
     77 H          10.7373   -5.1588    0.0000 H       1  UNL1        0.1029
     78 H           9.5439   -0.9266    0.0000 H       1  UNL1        0.0661
     79 H          10.3909   -0.6996    0.0000 H       1  UNL1        0.0661
     80 H          10.1639    0.1473    0.0000 H       1  UNL1        0.0661
     81 H           7.8389    2.0884    0.0000 H       1  UNL1        0.0280
     82 H           8.6884    2.3056    0.0000 H       1  UNL1        0.0280
     83 H           8.4713    3.1550    0.0000 H       1  UNL1        0.0280
     84 H           6.7732    4.4478    0.0000 H       1  UNL1        0.0574
     85 H           8.4820    4.0811    0.0000 H       1  UNL1        0.0272
     86 H           8.7187    4.9254    0.0000 H       1  UNL1        0.0272
     87 H           7.8745    5.1621    0.0000 H       1  UNL1        0.0272
@<TRIPOS>BOND
     1     1    15    1
     2     1    20    1
     3     2    16    1
     4     2    22    1
     5    17     3    1
     6     3    33    1
     7    18     4    1
     8     4    34    1
     9     5    30    1
    10     5    40    1
    11     6    30    2
    12     7    33    2
    13     8    36   ar
    14     8    39   ar
    15     9    34    2
    16    10    11    1
    17    10    13    1
    18    10    17    1
    19    10    23    1
    20    11    14    1
    21    11    15    1
    22    11    44    1
    23    12    13    1
    24    12    16    1
    25    12    19    1
    26    12    25    1
    27    13    24    1
    28    13    45    1
    29    14    18    1
    30    14    20    1
    31    14    26    1
    32    15    16    1
    33    15    46    1
    34    16    47    1
    35    17    21    1
    36    17    48    1
    37    18    21    1
    38    18    49    1
    39    19    22    1
    40    19    27    2
    41    20    50    1
    42    20    51    1
    43    21    52    1
    44    21    53    1
    45    22    28    1
    46    22    54    1
    47    23    55    1
    48    23    56    1
    49    23    57    1
    50    24    30    1
    51    24    58    1
    52    24    59    1
    53    25    60    1
    54    25    61    1
    55    25    62    1
    56    26    63    1
    57    26    64    1
    58    26    65    1
    59    27    29    1
    60    27    31    1
    61    28    29    1
    62    28    66    1
    63    28    67    1
    64    29    32    1
    65    29    68    1
    66    31    69    1
    67    31    70    1
    68    31    71    1
    69    32    35   ar
    70    32    36   ar
    71    33    37    1
    72    34    38    1
    73    35    39   ar
    74    35    72    1
    75    36    73    1
    76    37    41    1
    77    37    42    2
    78    38    74    1
    79    38    75    1
    80    38    76    1
    81    39    77    1
    82    40    78    1
    83    40    79    1
    84    40    80    1
    85    41    81    1
    86    41    82    1
    87    41    83    1
    88    42    43    1
    89    42    84    1
    90    43    85    1
    91    43    86    1
    92    43    87    1
