@<TRIPOS>MOLECULE
IMPHY004839
 37 39 0 0 0
SMALL
GASTEIGER

@<TRIPOS>ATOM
      1 O           8.1465    2.0346    0.0000 O.3     1  UNL1       -0.5058
      2 O           8.1465   -2.0346    0.0000 O.3     1  UNL1       -0.5058
      3 O           6.3981    2.0000    0.0000 O.2     1  UNL1       -0.2864
      4 O           6.3981   -2.0000    0.0000 O.2     1  UNL1       -0.2865
      5 O           4.6497    2.0346    0.0000 O.3     1  UNL1       -0.5059
      6 O           2.8680   -1.0241    0.0000 O.3     1  UNL1       -0.4950
      7 C           7.2641    0.5000    0.0000 C.ar    1  UNL1        0.0783
      8 C           7.2641   -0.5000    0.0000 C.ar    1  UNL1        0.0782
      9 C           5.5320    0.5000    0.0000 C.ar    1  UNL1        0.0748
     10 C           5.5320   -0.5000    0.0000 C.ar    1  UNL1        0.0402
     11 C           9.0641    0.5208    0.0000 C.ar    1  UNL1       -0.0019
     12 C           9.0641   -0.5208    0.0000 C.ar    1  UNL1       -0.0019
     13 C           8.1580    1.0347    0.0000 C.ar    1  UNL1        0.1317
     14 C           8.1580   -1.0347    0.0000 C.ar    1  UNL1        0.1317
     15 C           6.3981    1.0000    0.0000 C.2     1  UNL1        0.2016
     16 C           6.3981   -1.0000    0.0000 C.2     1  UNL1        0.1984
     17 C           4.6381    1.0347    0.0000 C.ar    1  UNL1        0.1318
     18 C           4.6381   -1.0347    0.0000 C.ar    1  UNL1       -0.0082
     19 C           9.9282    1.0241    0.0000 C.3     1  UNL1       -0.0359
     20 C           9.9282   -1.0241    0.0000 C.3     1  UNL1       -0.0359
     21 C           3.7320   -0.5208    0.0000 C.ar    1  UNL1        0.1243
     22 C           3.7320    0.5208    0.0000 C.ar    1  UNL1        0.0223
     23 C           2.0000   -0.5275    0.0000 C.3     1  UNL1        0.0788
     24 H           4.6453   -1.6546    0.0000 H       1  UNL1        0.0661
     25 H          10.2403    0.4884    0.0000 H       1  UNL1        0.0279
     26 H          10.4639    1.3362    0.0000 H       1  UNL1        0.0279
     27 H           9.6161    1.5599    0.0000 H       1  UNL1        0.0279
     28 H           9.6161   -1.5599    0.0000 H       1  UNL1        0.0279
     29 H          10.4639   -1.3362    0.0000 H       1  UNL1        0.0279
     30 H          10.2403   -0.4884    0.0000 H       1  UNL1        0.0279
     31 H           3.1963    0.8329    0.0000 H       1  UNL1        0.0691
     32 H           8.6798    2.3508    0.0000 H       1  UNL1        0.2922
     33 H           8.6798   -2.3508    0.0000 H       1  UNL1        0.2922
     34 H           4.1164    2.3508    0.0000 H       1  UNL1        0.2922
     35 H           2.3079    0.0106    0.0000 H       1  UNL1        0.0660
     36 H           1.4619   -0.2196    0.0000 H       1  UNL1        0.0660
     37 H           1.6921   -1.0656    0.0000 H       1  UNL1        0.0660
@<TRIPOS>BOND
     1     1    13    1
     2     1    32    1
     3     2    14    1
     4     2    33    1
     5     3    15    2
     6     4    16    2
     7     5    17    1
     8     5    34    1
     9     6    21    1
    10     6    23    1
    11     7     8   ar
    12     7    13   ar
    13     7    15    1
    14     8    14   ar
    15     8    16    1
    16     9    10   ar
    17     9    15    1
    18     9    17   ar
    19    10    16    1
    20    10    18   ar
    21    11    12   ar
    22    11    13   ar
    23    11    19    1
    24    12    14   ar
    25    12    20    1
    26    17    22   ar
    27    18    21   ar
    28    18    24    1
    29    19    25    1
    30    19    26    1
    31    19    27    1
    32    20    28    1
    33    20    29    1
    34    20    30    1
    35    21    22   ar
    36    22    31    1
    37    23    35    1
    38    23    36    1
    39    23    37    1
