@<TRIPOS>MOLECULE
IMPHY016636
 48 51 0 0 0
SMALL
GASTEIGER

@<TRIPOS>ATOM
      1 O           8.6282    3.7003    0.0000 O.3     1  UNL1       -0.3653
      2 O           5.5301   -1.6657    0.0000 O.3     1  UNL1       -0.4865
      3 O           7.3424   -4.4704    0.0000 O.2     1  UNL1       -0.4627
      4 O           3.7702   -4.7003    0.0000 O.2     1  UNL1       -0.4219
      5 O           2.0000   -4.6898    0.0000 O.2     1  UNL1       -0.2452
      6 C           7.6282    3.7003    0.0000 C.3     1  UNL1        0.0904
      7 C           8.1282    2.8343    0.0000 C.3     1  UNL1        0.0881
      8 C           8.1282    1.8343    0.0000 C.3     1  UNL1       -0.0202
      9 C           7.6282    4.7003    0.0000 C.3     1  UNL1       -0.0336
     10 C           6.7622    3.2003    0.0000 C.3     1  UNL1       -0.0336
     11 C           7.2622    1.3343    0.0000 C.3     1  UNL1       -0.0295
     12 C           7.2622    0.3343    0.0000 C.2     1  UNL1       -0.0733
     13 C           8.1282   -0.1657    0.0000 C.3     1  UNL1       -0.0437
     14 C           6.3961   -0.1657    0.0000 C.2     1  UNL1       -0.0481
     15 C           6.3961   -1.1657    0.0000 C.3     1  UNL1        0.1081
     16 C           5.5301   -2.6657    0.0000 C.ar    1  UNL1        0.1423
     17 C           6.3961   -3.1657    0.0000 C.ar    1  UNL1        0.0626
     18 C           4.6641   -3.1657    0.0000 C.ar    1  UNL1        0.0600
     19 C           6.3961   -4.1657    0.0000 C.ar    1  UNL1        0.1418
     20 C           4.6641   -4.1657    0.0000 C.ar    1  UNL1        0.1461
     21 C           5.5301   -4.6657    0.0000 C.ar    1  UNL1        0.0245
     22 C           7.3424   -2.8610    0.0000 C.ar    1  UNL1       -0.0126
     23 C           3.7702   -2.6310    0.0000 C.ar    1  UNL1       -0.0408
     24 C           7.9260   -3.6657    0.0000 C.ar    1  UNL1        0.0933
     25 C           2.8641   -3.1449    0.0000 C.ar    1  UNL1        0.0237
     26 C           2.8641   -4.1865    0.0000 C.ar    1  UNL1        0.3372
     27 H           8.7271    2.6738    0.0000 H       1  UNL1        0.0625
     28 H           8.3402    1.2517    0.0000 H       1  UNL1        0.0294
     29 H           8.7388    1.9420    0.0000 H       1  UNL1        0.0294
     30 H           8.2482    4.7003    0.0000 H       1  UNL1        0.0258
     31 H           7.6282    5.3203    0.0000 H       1  UNL1        0.0258
     32 H           7.0082    4.7003    0.0000 H       1  UNL1        0.0258
     33 H           6.4522    3.7373    0.0000 H       1  UNL1        0.0258
     34 H           6.2252    2.8903    0.0000 H       1  UNL1        0.0258
     35 H           7.0722    2.6634    0.0000 H       1  UNL1        0.0258
     36 H           7.0501    1.9169    0.0000 H       1  UNL1        0.0311
     37 H           6.6516    1.2267    0.0000 H       1  UNL1        0.0311
     38 H           7.8182   -0.7026    0.0000 H       1  UNL1        0.0274
     39 H           8.6651   -0.4757    0.0000 H       1  UNL1        0.0274
     40 H           8.4382    0.3713    0.0000 H       1  UNL1        0.0274
     41 H           5.8592    0.1443    0.0000 H       1  UNL1        0.0605
     42 H           6.6082   -1.7483    0.0000 H       1  UNL1        0.0742
     43 H           7.0067   -1.0580    0.0000 H       1  UNL1        0.0742
     44 H           5.5301   -5.2857    0.0000 H       1  UNL1        0.0692
     45 H           7.5350   -2.2716    0.0000 H       1  UNL1        0.0656
     46 H           3.7773   -2.0111    0.0000 H       1  UNL1        0.0628
     47 H           8.5460   -3.6657    0.0000 H       1  UNL1        0.1030
     48 H           2.3284   -2.8328    0.0000 H       1  UNL1        0.0689
@<TRIPOS>BOND
     1     1     6    1
     2     1     7    1
     3     2    15    1
     4     2    16    1
     5     3    19   ar
     6     3    24   ar
     7     4    20   ar
     8     4    26   ar
     9     5    26    2
    10     6     7    1
    11     6     9    1
    12     6    10    1
    13     7     8    1
    14     7    27    1
    15     8    11    1
    16     8    28    1
    17     8    29    1
    18     9    30    1
    19     9    31    1
    20     9    32    1
    21    10    33    1
    22    10    34    1
    23    10    35    1
    24    11    12    1
    25    11    36    1
    26    11    37    1
    27    12    13    1
    28    12    14    2
    29    13    38    1
    30    13    39    1
    31    13    40    1
    32    14    15    1
    33    14    41    1
    34    15    42    1
    35    15    43    1
    36    16    17   ar
    37    16    18   ar
    38    17    19   ar
    39    17    22   ar
    40    18    20   ar
    41    18    23   ar
    42    19    21   ar
    43    20    21   ar
    44    21    44    1
    45    22    24   ar
    46    22    45    1
    47    23    25   ar
    48    23    46    1
    49    24    47    1
    50    25    26   ar
    51    25    48    1
