@<TRIPOS>MOLECULE
IMPHY001592
 153 162 0 0 0
SMALL
GASTEIGER

@<TRIPOS>ATOM
      1 O          10.8882    4.0403    0.0000 O.3     1  UNL1       -0.3448
      2 O           9.1158    4.9351    0.0000 O.3     1  UNL1       -0.3480
      3 O           9.4651   -4.2038    0.0000 O.3     1  UNL1       -0.3454
      4 O           7.7331   -4.2038    0.0000 O.3     1  UNL1       -0.3405
      5 O           9.4651   -6.2038    0.0000 O.3     1  UNL1       -0.3378
      6 O           7.7331   -7.2038    0.0000 O.3     1  UNL1       -0.3864
      7 O           6.0010   -6.2038    0.0000 O.3     1  UNL1       -0.3402
      8 O           6.0010   -3.2038    0.0000 O.3     1  UNL1       -0.3461
      9 O          10.3312   -4.7038    0.0000 O.3     1  UNL1       -0.3405
     10 O           5.1350   -4.7038    0.0000 O.3     1  UNL1       -0.3461
     11 O          11.1972   -7.2038    0.0000 O.3     1  UNL1       -0.3841
     12 O          12.9292   -6.2038    0.0000 O.3     1  UNL1       -0.3864
     13 O           4.2690   -3.2038    0.0000 O.3     1  UNL1       -0.3431
     14 O          12.9292   -4.2038    0.0000 O.3     1  UNL1       -0.3865
     15 O           4.2690   -7.2038    0.0000 O.3     1  UNL1       -0.3841
     16 O           2.5369   -6.2038    0.0000 O.3     1  UNL1       -0.3864
     17 O           6.0010   -1.2038    0.0000 O.3     1  UNL1       -0.3841
     18 O          12.0632   -2.7038    0.0000 O.3     1  UNL1       -0.3924
     19 O           2.5369   -4.2038    0.0000 O.3     1  UNL1       -0.3869
     20 O           4.2690   -0.2037    0.0000 O.3     1  UNL1       -0.3864
     21 O           2.5369   -1.2038    0.0000 O.3     1  UNL1       -0.3866
     22 C           9.4944    1.9931    0.0000 C.3     1  UNL1       -0.0233
     23 C          10.3623    1.4965    0.0000 C.3     1  UNL1       -0.0298
     24 C          10.3662    0.4965    0.0000 C.3     1  UNL1       -0.0343
     25 C           9.6999    2.9657    0.0000 C.3     1  UNL1       -0.0015
     26 C           9.5021   -0.0069    0.0000 C.3     1  UNL1       -0.0323
     27 C          10.6882    3.0726    0.0000 C.3     1  UNL1        0.0660
     28 C           9.4901   -1.0484    0.0000 C.3     1  UNL1       -0.0260
     29 C          11.0968    2.1664    0.0000 C.3     1  UNL1       -0.0226
     30 C           8.6303    1.4898    0.0000 C.3     1  UNL1       -0.0467
     31 C           8.6342    0.4898    0.0000 C.3     1  UNL1       -0.0489
     32 C           9.2976    3.8683    0.0000 C.3     1  UNL1        0.0160
     33 C          10.3901   -1.5727    0.0000 C.3     1  UNL1       -0.0330
     34 C          11.2781   -0.0069    0.0000 C.3     1  UNL1       -0.0494
     35 C          10.0305    4.5311    0.0000 C.3     1  UNL1        0.1732
     36 C          11.2902   -1.0484    0.0000 C.3     1  UNL1       -0.0494
     37 C           8.6264    2.4898    0.0000 C.3     1  UNL1       -0.0590
     38 C           8.5402   -1.5727    0.0000 C.3     1  UNL1       -0.0448
     39 C          10.4027   -2.6576    0.0000 C.3     1  UNL1       -0.0232
     40 C           8.6260   -0.5451    0.0000 C.3     1  UNL1       -0.0590
     41 C           8.5276   -2.6576    0.0000 C.3     1  UNL1       -0.0260
     42 C           8.3192    4.0750    0.0000 C.3     1  UNL1       -0.0572
     43 C           9.4651   -3.2038    0.0000 C.3     1  UNL1        0.0621
     44 C          10.8378    5.1213    0.0000 C.3     1  UNL1        0.0020
     45 C          10.7303    6.1155    0.0000 C.3     1  UNL1       -0.0435
     46 C           9.0083    5.9293    0.0000 C.3     1  UNL1        0.0535
     47 C           9.8155    6.5195    0.0000 C.3     1  UNL1       -0.0201
     48 C           9.7080    7.5138    0.0000 C.3     1  UNL1       -0.0603
     49 C           8.5991   -4.7038    0.0000 C.3     1  UNL1        0.1886
     50 C           8.5991   -5.7038    0.0000 C.3     1  UNL1        0.1406
     51 C           7.7331   -6.2038    0.0000 C.3     1  UNL1        0.1148
     52 C           6.8671   -4.7038    0.0000 C.3     1  UNL1        0.1137
     53 C           6.8671   -5.7038    0.0000 C.3     1  UNL1        0.1184
     54 C           6.0010   -4.2038    0.0000 C.3     1  UNL1        0.0796
     55 C          10.3312   -5.7038    0.0000 C.3     1  UNL1        0.1885
     56 C          11.1972   -6.2038    0.0000 C.3     1  UNL1        0.1341
     57 C           5.1350   -5.7038    0.0000 C.3     1  UNL1        0.1880
     58 C          12.0632   -5.7038    0.0000 C.3     1  UNL1        0.1141
     59 C          11.1972   -4.2038    0.0000 C.3     1  UNL1        0.1130
     60 C           4.2690   -6.2038    0.0000 C.3     1  UNL1        0.1341
     61 C          12.0632   -4.7038    0.0000 C.3     1  UNL1        0.1119
     62 C           5.1350   -2.7038    0.0000 C.3     1  UNL1        0.1879
     63 C           3.4030   -5.7038    0.0000 C.3     1  UNL1        0.1137
     64 C           5.1350   -1.7038    0.0000 C.3     1  UNL1        0.1341
     65 C          11.1972   -3.2038    0.0000 C.3     1  UNL1        0.0730
     66 C           4.2690   -4.2038    0.0000 C.3     1  UNL1        0.0792
     67 C           3.4030   -4.7038    0.0000 C.3     1  UNL1        0.1069
     68 C           4.2690   -1.2038    0.0000 C.3     1  UNL1        0.1140
     69 C           3.4030   -2.7038    0.0000 C.3     1  UNL1        0.0873
     70 C           3.4030   -1.7038    0.0000 C.3     1  UNL1        0.1095
     71 C           2.5369   -3.2038    0.0000 C.3     1  UNL1       -0.0361
     72 H          10.9300    1.2472    0.0000 H       1  UNL1        0.0310
     73 H          10.8995    0.8127    0.0000 H       1  UNL1        0.0306
     74 H           9.0833    2.9004    0.0000 H       1  UNL1        0.0335
     75 H          10.0378   -0.3189    0.0000 H       1  UNL1        0.0309
     76 H          11.3044    3.1406    0.0000 H       1  UNL1        0.0600
     77 H          11.4642    1.6670    0.0000 H       1  UNL1        0.0293
     78 H          11.6321    2.4792    0.0000 H       1  UNL1        0.0293
     79 H           8.4160    2.0716    0.0000 H       1  UNL1        0.0271
     80 H           8.0201    1.3798    0.0000 H       1  UNL1        0.0271
     81 H           8.0232    0.5951    0.0000 H       1  UNL1        0.0268
     82 H           8.4244   -0.0936    0.0000 H       1  UNL1        0.0268
     83 H           8.9078    3.3862    0.0000 H       1  UNL1        0.0354
     84 H          10.9294   -1.8786    0.0000 H       1  UNL1        0.0307
     85 H          11.8902   -0.1059    0.0000 H       1  UNL1        0.0268
     86 H          11.4804    0.5792    0.0000 H       1  UNL1        0.0268
     87 H          11.5060   -1.6297    0.0000 H       1  UNL1        0.0268
     88 H          11.8998   -0.9353    0.0000 H       1  UNL1        0.0268
     89 H           8.9344    3.0279    0.0000 H       1  UNL1        0.0235
     90 H           8.0883    2.7977    0.0000 H       1  UNL1        0.0235
     91 H           8.3185    1.9517    0.0000 H       1  UNL1        0.0235
     92 H           8.3379   -0.9866    0.0000 H       1  UNL1        0.0271
     93 H           7.9281   -1.6717    0.0000 H       1  UNL1        0.0271
     94 H          10.6185   -3.2389    0.0000 H       1  UNL1        0.0293
     95 H          11.0123   -2.5445    0.0000 H       1  UNL1        0.0293
     96 H           8.9380   -0.0093    0.0000 H       1  UNL1        0.0235
     97 H           8.0902   -0.2330    0.0000 H       1  UNL1        0.0235
     98 H           8.3139   -1.0808    0.0000 H       1  UNL1        0.0235
     99 H           7.9180   -2.5445    0.0000 H       1  UNL1        0.0290
    100 H           8.3118   -3.2389    0.0000 H       1  UNL1        0.0290
    101 H           8.4473    4.6816    0.0000 H       1  UNL1        0.0234
    102 H           7.7125    4.2032    0.0000 H       1  UNL1        0.0234
    103 H           8.1910    3.4684    0.0000 H       1  UNL1        0.0234
    104 H          10.0027   -3.5127    0.0000 H       1  UNL1        0.0597
    105 H          11.1112    4.5649    0.0000 H       1  UNL1        0.0317
    106 H          11.4333    5.2940    0.0000 H       1  UNL1        0.0317
    107 H          11.3489    6.0741    0.0000 H       1  UNL1        0.0270
    108 H          10.8785    6.7176    0.0000 H       1  UNL1        0.0270
    109 H           8.7348    6.4858    0.0000 H       1  UNL1        0.0563
    110 H           8.4128    5.7567    0.0000 H       1  UNL1        0.0563
    111 H          10.3160    6.8855    0.0000 H       1  UNL1        0.0320
    112 H          10.3244    7.5804    0.0000 H       1  UNL1        0.0233
    113 H           9.6414    8.1302    0.0000 H       1  UNL1        0.0233
    114 H           9.0916    7.4471    0.0000 H       1  UNL1        0.0233
    115 H           8.5991   -4.0838    0.0000 H       1  UNL1        0.0938
    116 H           8.5991   -6.3238    0.0000 H       1  UNL1        0.0675
    117 H           7.1962   -6.5138    0.0000 H       1  UNL1        0.0648
    118 H           6.8671   -4.0838    0.0000 H       1  UNL1        0.0647
    119 H           6.3301   -5.3938    0.0000 H       1  UNL1        0.0651
    120 H           5.3905   -4.0961    0.0000 H       1  UNL1        0.0587
    121 H           5.7890   -4.7864    0.0000 H       1  UNL1        0.0587
    122 H           9.7942   -5.3938    0.0000 H       1  UNL1        0.0938
    123 H           7.1962   -7.5138    0.0000 H       1  UNL1        0.2100
    124 H          11.7341   -6.5138    0.0000 H       1  UNL1        0.0671
    125 H           5.1350   -6.3238    0.0000 H       1  UNL1        0.0937
    126 H          12.6002   -5.3938    0.0000 H       1  UNL1        0.0648
    127 H          10.6603   -3.8938    0.0000 H       1  UNL1        0.0647
    128 H          12.0632   -4.0838    0.0000 H       1  UNL1        0.0647
    129 H           3.7320   -6.5138    0.0000 H       1  UNL1        0.0671
    130 H           5.1350   -3.3238    0.0000 H       1  UNL1        0.0937
    131 H          11.7341   -7.5138    0.0000 H       1  UNL1        0.2101
    132 H           2.8660   -5.3938    0.0000 H       1  UNL1        0.0647
    133 H           5.1350   -1.0838    0.0000 H       1  UNL1        0.0671
    134 H          10.9851   -2.6211    0.0000 H       1  UNL1        0.0584
    135 H          10.5866   -3.3114    0.0000 H       1  UNL1        0.0584
    136 H           4.6675   -3.7288    0.0000 H       1  UNL1        0.0587
    137 H           3.8705   -3.7288    0.0000 H       1  UNL1        0.0587
    138 H           3.4030   -4.0838    0.0000 H       1  UNL1        0.0643
    139 H          12.9292   -6.8238    0.0000 H       1  UNL1        0.2100
    140 H           3.7320   -0.8937    0.0000 H       1  UNL1        0.0648
    141 H          13.4662   -4.5138    0.0000 H       1  UNL1        0.2100
    142 H           3.7320   -7.5138    0.0000 H       1  UNL1        0.2101
    143 H           3.4030   -3.3238    0.0000 H       1  UNL1        0.0621
    144 H           2.8660   -2.0138    0.0000 H       1  UNL1        0.0646
    145 H           2.0000   -5.8938    0.0000 H       1  UNL1        0.2100
    146 H           6.0010   -0.5837    0.0000 H       1  UNL1        0.2101
    147 H          12.6002   -3.0138    0.0000 H       1  UNL1        0.2095
    148 H           2.0000   -4.5138    0.0000 H       1  UNL1        0.2100
    149 H           2.2269   -2.6668    0.0000 H       1  UNL1        0.0255
    150 H           2.0000   -3.5138    0.0000 H       1  UNL1        0.0255
    151 H           2.8469   -3.7407    0.0000 H       1  UNL1        0.0255
    152 H           3.7320    0.1063    0.0000 H       1  UNL1        0.2100
    153 H           2.0000   -1.5138    0.0000 H       1  UNL1        0.2100
@<TRIPOS>BOND
     1     1    27    1
     2     1    35    1
     3     2    35    1
     4     2    46    1
     5     3    43    1
     6     3    49    1
     7     4    49    1
     8     4    52    1
     9     5    50    1
    10     5    55    1
    11     6    51    1
    12     6   123    1
    13     7    53    1
    14     7    57    1
    15     8    54    1
    16     8    62    1
    17     9    55    1
    18     9    59    1
    19    10    57    1
    20    10    66    1
    21    11    56    1
    22    11   131    1
    23    12    58    1
    24    12   139    1
    25    13    62    1
    26    13    69    1
    27    14    61    1
    28    14   141    1
    29    15    60    1
    30    15   142    1
    31    16    63    1
    32    16   145    1
    33    17    64    1
    34    17   146    1
    35    18    65    1
    36    18   147    1
    37    19    67    1
    38    19   148    1
    39    20    68    1
    40    20   152    1
    41    21    70    1
    42    21   153    1
    43    22    23    1
    44    22    25    1
    45    22    30    1
    46    22    37    1
    47    23    24    1
    48    23    29    1
    49    23    72    1
    50    24    26    1
    51    24    34    1
    52    24    73    1
    53    25    27    1
    54    25    32    1
    55    25    74    1
    56    26    28    1
    57    26    31    1
    58    26    75    1
    59    27    29    1
    60    27    76    1
    61    28    33    1
    62    28    38    1
    63    28    40    1
    64    29    77    1
    65    29    78    1
    66    30    31    1
    67    30    79    1
    68    30    80    1
    69    31    81    1
    70    31    82    1
    71    32    35    1
    72    32    42    1
    73    32    83    1
    74    33    36    1
    75    33    39    1
    76    33    84    1
    77    34    36    1
    78    34    85    1
    79    34    86    1
    80    35    44    1
    81    36    87    1
    82    36    88    1
    83    37    89    1
    84    37    90    1
    85    37    91    1
    86    38    41    1
    87    38    92    1
    88    38    93    1
    89    39    43    1
    90    39    94    1
    91    39    95    1
    92    40    96    1
    93    40    97    1
    94    40    98    1
    95    41    43    1
    96    41    99    1
    97    41   100    1
    98    42   101    1
    99    42   102    1
   100    42   103    1
   101    43   104    1
   102    44    45    1
   103    44   105    1
   104    44   106    1
   105    45    47    1
   106    45   107    1
   107    45   108    1
   108    46    47    1
   109    46   109    1
   110    46   110    1
   111    47    48    1
   112    47   111    1
   113    48   112    1
   114    48   113    1
   115    48   114    1
   116    49    50    1
   117    49   115    1
   118    50    51    1
   119    50   116    1
   120    51    53    1
   121    51   117    1
   122    52    53    1
   123    52    54    1
   124    52   118    1
   125    53   119    1
   126    54   120    1
   127    54   121    1
   128    55    56    1
   129    55   122    1
   130    56    58    1
   131    56   124    1
   132    57    60    1
   133    57   125    1
   134    58    61    1
   135    58   126    1
   136    59    61    1
   137    59    65    1
   138    59   127    1
   139    60    63    1
   140    60   129    1
   141    61   128    1
   142    62    64    1
   143    62   130    1
   144    63    67    1
   145    63   132    1
   146    64    68    1
   147    64   133    1
   148    65   134    1
   149    65   135    1
   150    66    67    1
   151    66   136    1
   152    66   137    1
   153    67   138    1
   154    68    70    1
   155    68   140    1
   156    69    70    1
   157    69    71    1
   158    69   143    1
   159    70   144    1
   160    71   149    1
   161    71   150    1
   162    71   151    1
