@<TRIPOS>MOLECULE
IMPHY007623
 51 52 0 0 0
SMALL
GASTEIGER

@<TRIPOS>ATOM
      1 O           3.7320   -1.7500    0.0000 O.3     1  UNL1       -0.4149
      2 O           3.7320    0.2500    0.0000 O.3     1  UNL1       -0.4905
      3 O           7.1962   -1.7500    0.0000 O.3     1  UNL1       -0.4884
      4 O           7.1962    0.2500    0.0000 O.3     1  UNL1       -0.5027
      5 O           5.4641   -2.7500    0.0000 O.3     1  UNL1       -0.5007
      6 O           4.5981    1.7500    0.0000 O.2     1  UNL1       -0.2870
      7 O           4.5981   -3.2500    0.0000 O.2     1  UNL1       -0.2449
      8 C           5.4641    0.2500    0.0000 C.ar    1  UNL1        0.1121
      9 C           4.5981   -0.2500    0.0000 C.ar    1  UNL1        0.1805
     10 C           4.5981   -1.2500    0.0000 C.ar    1  UNL1        0.2190
     11 C           6.3301   -0.2500    0.0000 C.ar    1  UNL1        0.1770
     12 C           6.3301   -1.2500    0.0000 C.ar    1  UNL1        0.2078
     13 C           5.4641   -1.7500    0.0000 C.ar    1  UNL1        0.2092
     14 C           5.4641    1.2500    0.0000 C.2     1  UNL1        0.1934
     15 C           6.3301    1.7500    0.0000 C.2     1  UNL1       -0.0135
     16 C           6.3301    2.7500    0.0000 C.2     1  UNL1       -0.0510
     17 C           3.7320   -2.7500    0.0000 C.2     1  UNL1        0.3400
     18 C           7.1962    3.2500    0.0000 C.ar    1  UNL1       -0.0249
     19 C           2.8660   -3.2500    0.0000 C.2     1  UNL1        0.0298
     20 C           2.8660   -0.2500    0.0000 C.3     1  UNL1        0.0790
     21 C           7.1962   -2.7500    0.0000 C.3     1  UNL1        0.0791
     22 C           8.0622    2.7500    0.0000 C.ar    1  UNL1       -0.0546
     23 C           7.1962    4.2500    0.0000 C.ar    1  UNL1       -0.0546
     24 C           2.0000   -2.7500    0.0000 C.3     1  UNL1       -0.0332
     25 C           2.8660   -4.2500    0.0000 C.2     1  UNL1       -0.0774
     26 C           8.9282    3.2500    0.0000 C.ar    1  UNL1       -0.0612
     27 C           8.0622    4.7500    0.0000 C.ar    1  UNL1       -0.0612
     28 C           8.9282    4.2500    0.0000 C.ar    1  UNL1       -0.0617
     29 C           3.7320   -4.7500    0.0000 C.3     1  UNL1       -0.0461
     30 H           6.8671    1.4400    0.0000 H       1  UNL1        0.0656
     31 H           5.7932    3.0600    0.0000 H       1  UNL1        0.0625
     32 H           7.7331   -0.0600    0.0000 H       1  UNL1        0.2923
     33 H           6.0010   -3.0600    0.0000 H       1  UNL1        0.2924
     34 H           2.5560    0.2869    0.0000 H       1  UNL1        0.0660
     35 H           2.3291   -0.5600    0.0000 H       1  UNL1        0.0660
     36 H           3.1760   -0.7869    0.0000 H       1  UNL1        0.0660
     37 H           6.5762   -2.7500    0.0000 H       1  UNL1        0.0660
     38 H           7.1962   -3.3700    0.0000 H       1  UNL1        0.0660
     39 H           7.8162   -2.7500    0.0000 H       1  UNL1        0.0660
     40 H           8.0622    2.1300    0.0000 H       1  UNL1        0.0623
     41 H           6.6592    4.5600    0.0000 H       1  UNL1        0.0623
     42 H           2.3100   -2.2131    0.0000 H       1  UNL1        0.0280
     43 H           1.4631   -2.4400    0.0000 H       1  UNL1        0.0280
     44 H           1.6900   -3.2869    0.0000 H       1  UNL1        0.0280
     45 H           2.3291   -4.5600    0.0000 H       1  UNL1        0.0574
     46 H           9.4651    2.9400    0.0000 H       1  UNL1        0.0618
     47 H           8.0622    5.3700    0.0000 H       1  UNL1        0.0618
     48 H           9.4651    4.5600    0.0000 H       1  UNL1        0.0618
     49 H           3.4220   -5.2869    0.0000 H       1  UNL1        0.0272
     50 H           4.2690   -5.0600    0.0000 H       1  UNL1        0.0272
     51 H           4.0420   -4.2131    0.0000 H       1  UNL1        0.0272
@<TRIPOS>BOND
     1     1    10    1
     2     1    17    1
     3     2     9    1
     4     2    20    1
     5     3    12    1
     6     3    21    1
     7     4    11    1
     8     4    32    1
     9     5    13    1
    10     5    33    1
    11     6    14    2
    12     7    17    2
    13     8     9   ar
    14     8    11   ar
    15     8    14    1
    16     9    10   ar
    17    10    13   ar
    18    11    12   ar
    19    12    13   ar
    20    14    15    1
    21    15    16    2
    22    15    30    1
    23    16    18    1
    24    16    31    1
    25    17    19    1
    26    18    22   ar
    27    18    23   ar
    28    19    24    1
    29    19    25    2
    30    20    34    1
    31    20    35    1
    32    20    36    1
    33    21    37    1
    34    21    38    1
    35    21    39    1
    36    22    26   ar
    37    22    40    1
    38    23    27   ar
    39    23    41    1
    40    24    42    1
    41    24    43    1
    42    24    44    1
    43    25    29    1
    44    25    45    1
    45    26    28   ar
    46    26    46    1
    47    27    28   ar
    48    27    47    1
    49    28    48    1
    50    29    49    1
    51    29    50    1
    52    29    51    1
