@<TRIPOS>MOLECULE
IMPHY002502
 50 52 0 0 0
SMALL
GASTEIGER

@<TRIPOS>ATOM
      1 O           7.2343    0.1917    0.0000 O.3     1  UNL1       -0.4907
      2 O           7.2501   -1.8565    0.0000 O.3     1  UNL1       -0.4885
      3 O           3.7320    1.1886    0.0000 O.2     1  UNL1       -0.2974
      4 O           7.1962    1.1886    0.0000 O.3     1  UNL1       -0.5062
      5 O           5.4762   -2.8807    0.0000 O.3     1  UNL1       -0.5032
      6 C           2.8660   -0.3114    0.0000 C.3     1  UNL1       -0.0487
      7 C           3.7320    0.1886    0.0000 C.3     1  UNL1       -0.0269
      8 C           2.0000    0.1886    0.0000 C.3     1  UNL1       -0.0461
      9 C           4.5981   -0.3114    0.0000 C.ar    1  UNL1       -0.0324
     10 C           5.4641    0.1886    0.0000 C.ar    1  UNL1        0.0343
     11 C           2.0000    1.1886    0.0000 C.3     1  UNL1        0.0058
     12 C           5.4641    1.1886    0.0000 C.ar    1  UNL1        0.0277
     13 C           3.7320    3.1886    0.0000 C.3     1  UNL1       -0.0210
     14 C           2.8660    2.6886    0.0000 C.3     1  UNL1        0.0098
     15 C           4.5981    2.6886    0.0000 C.ar    1  UNL1       -0.0462
     16 C           2.8660    1.6886    0.0000 C.2     1  UNL1        0.1337
     17 C           6.3741   -0.3183    0.0000 C.ar    1  UNL1        0.1732
     18 C           4.5981    1.6886    0.0000 C.ar    1  UNL1       -0.0472
     19 C           4.5820   -1.3529    0.0000 C.ar    1  UNL1       -0.0125
     20 C           6.3301    1.6886    0.0000 C.ar    1  UNL1        0.1247
     21 C           6.3821   -1.3598    0.0000 C.ar    1  UNL1        0.2039
     22 C           5.4800   -1.8807    0.0000 C.ar    1  UNL1        0.1625
     23 C           5.4641    3.1886    0.0000 C.ar    1  UNL1       -0.0551
     24 C           6.3301    2.6886    0.0000 C.ar    1  UNL1       -0.0193
     25 C           8.1060   -0.2982    0.0000 C.3     1  UNL1        0.0790
     26 C           7.2539   -2.8565    0.0000 C.3     1  UNL1        0.0791
     27 H           2.4675   -0.7864    0.0000 H       1  UNL1        0.0269
     28 H           3.2646   -0.7864    0.0000 H       1  UNL1        0.0269
     29 H           4.1306    0.6635    0.0000 H       1  UNL1        0.0313
     30 H           3.3335    0.6635    0.0000 H       1  UNL1        0.0313
     31 H           1.3894    0.2963    0.0000 H       1  UNL1        0.0269
     32 H           1.7880   -0.3940    0.0000 H       1  UNL1        0.0269
     33 H           1.7880    1.7712    0.0000 H       1  UNL1        0.0342
     34 H           1.3894    1.0809    0.0000 H       1  UNL1        0.0342
     35 H           4.1306    3.6635    0.0000 H       1  UNL1        0.0317
     36 H           3.3335    3.6635    0.0000 H       1  UNL1        0.0317
     37 H           2.6540    3.2712    0.0000 H       1  UNL1        0.0345
     38 H           2.2554    2.5809    0.0000 H       1  UNL1        0.0345
     39 H           4.0611    1.3786    0.0000 H       1  UNL1        0.0627
     40 H           4.0415   -1.6567    0.0000 H       1  UNL1        0.0658
     41 H           5.4641    3.8086    0.0000 H       1  UNL1        0.0621
     42 H           6.8671    2.9986    0.0000 H       1  UNL1        0.0654
     43 H           7.7331    1.4986    0.0000 H       1  UNL1        0.2922
     44 H           4.9381   -3.1886    0.0000 H       1  UNL1        0.2923
     45 H           7.8023   -0.8387    0.0000 H       1  UNL1        0.0660
     46 H           8.6465   -0.6020    0.0000 H       1  UNL1        0.0660
     47 H           8.4098    0.2423    0.0000 H       1  UNL1        0.0660
     48 H           6.6339   -2.8589    0.0000 H       1  UNL1        0.0660
     49 H           7.2563   -3.4765    0.0000 H       1  UNL1        0.0660
     50 H           7.8739   -2.8541    0.0000 H       1  UNL1        0.0660
@<TRIPOS>BOND
     1     1    17    1
     2     1    25    1
     3     2    21    1
     4     2    26    1
     5     3    16    2
     6     4    20    1
     7     4    43    1
     8     5    22    1
     9     5    44    1
    10     6     7    1
    11     6     8    1
    12     6    27    1
    13     6    28    1
    14     7     9    1
    15     7    29    1
    16     7    30    1
    17     8    11    1
    18     8    31    1
    19     8    32    1
    20     9    10   ar
    21     9    19   ar
    22    10    12    1
    23    10    17   ar
    24    11    16    1
    25    11    33    1
    26    11    34    1
    27    12    18   ar
    28    12    20   ar
    29    13    14    1
    30    13    15    1
    31    13    35    1
    32    13    36    1
    33    14    16    1
    34    14    37    1
    35    14    38    1
    36    15    18   ar
    37    15    23   ar
    38    17    21   ar
    39    18    39    1
    40    19    22   ar
    41    19    40    1
    42    20    24   ar
    43    21    22   ar
    44    23    24   ar
    45    23    41    1
    46    24    42    1
    47    25    45    1
    48    25    46    1
    49    25    47    1
    50    26    48    1
    51    26    49    1
    52    26    50    1
