@<TRIPOS>MOLECULE
IMPHY002723
 162 173 0 0 0
SMALL
GASTEIGER

@<TRIPOS>ATOM
      1 O          13.2972   -2.9410    0.0000 O.3     1  UNL1       -0.3281
      2 O          14.1793   -5.4825    0.0000 O.3     1  UNL1       -0.4512
      3 O          15.9495   -4.4856    0.0000 O.3     1  UNL1       -0.4500
      4 O          15.9653   -2.4374    0.0000 O.3     1  UNL1       -0.4476
      5 O           6.6488    4.9074    0.0000 O.3     1  UNL1       -0.3300
      6 O          14.1914   -1.4132    0.0000 O.3     1  UNL1       -0.4274
      7 O          12.1885   -5.4484    0.0000 O.3     1  UNL1       -0.4584
      8 O           5.5345    2.0357    0.0000 O.3     1  UNL1       -0.4523
      9 O           6.0921    4.7525    0.0000 O.3     1  UNL1       -0.3853
     10 O           4.1965    3.8550    0.0000 O.3     1  UNL1       -0.3818
     11 O           5.0725    5.6123    0.0000 O.3     1  UNL1       -0.4287
     12 O           9.0415    3.3122    0.0000 O.3     1  UNL1       -0.4584
     13 O          13.1590   -7.1628    0.0000 O.2     1  UNL1       -0.2449
     14 O          16.8328   -2.9957    0.0000 O.2     1  UNL1       -0.2449
     15 O          15.1051   -0.9340    0.0000 O.2     1  UNL1       -0.2449
     16 O          12.4594   -1.4199    0.0000 O.2     1  UNL1       -0.2447
     17 O          13.1885   -5.4484    0.0000 O.2     1  UNL1       -0.2449
     18 O          11.5876    0.0768    0.0000 O.3     1  UNL1       -0.4476
     19 O           5.0574    0.5225    0.0000 O.2     1  UNL1       -0.2449
     20 O          13.6853   -9.8167    0.0000 O.3     1  UNL1       -0.5028
     21 O           6.4914    6.6058    0.0000 O.2     1  UNL1       -0.2449
     22 O          10.3797    2.4596    0.0000 O.2     1  UNL1       -0.2449
     23 O          12.6916   -9.8167    0.0000 O.3     1  UNL1       -0.5028
     24 O          16.7577   -8.0586    0.0000 O.3     1  UNL1       -0.5032
     25 O          15.7336   -9.8325    0.0000 O.3     1  UNL1       -0.5009
     26 O           8.2566   -1.1211    0.0000 O.3     1  UNL1       -0.5028
     27 O           8.9423   -1.0247    0.0000 O.3     1  UNL1       -0.5028
     28 O          10.6433   -9.8325    0.0000 O.3     1  UNL1       -0.5009
     29 O           9.6192   -8.0586    0.0000 O.3     1  UNL1       -0.5032
     30 O          10.2709   -1.4923    0.0000 O.3     1  UNL1       -0.5009
     31 O          11.8021    2.3436    0.0000 O.3     1  UNL1       -0.5008
     32 O          20.2851   -4.0357    0.0000 O.3     1  UNL1       -0.5032
     33 O          18.5185   -7.0155    0.0000 O.3     1  UNL1       -0.5032
     34 O           5.6637   -2.0792    0.0000 O.3     1  UNL1       -0.5032
     35 O           7.6809   -2.4350    0.0000 O.3     1  UNL1       -0.5009
     36 O          15.0439    2.0901    0.0000 O.3     1  UNL1       -0.5032
     37 O          17.7128    1.5559    0.0000 O.3     1  UNL1       -0.5032
     38 O          19.4332   -1.4507    0.0000 O.3     1  UNL1       -0.5032
     39 O          20.2620   -6.0356    0.0000 O.3     1  UNL1       -0.5009
     40 O          13.3081    3.0834    0.0000 O.3     1  UNL1       -0.5008
     41 O          19.4409    0.5493    0.0000 O.3     1  UNL1       -0.5009
     42 O           5.1932    9.9696    0.0000 O.3     1  UNL1       -0.5032
     43 O           2.3556    7.9826    0.0000 O.3     1  UNL1       -0.5032
     44 O           3.2008    9.7952    0.0000 O.3     1  UNL1       -0.5009
     45 C          14.1793   -4.4825    0.0000 C.3     1  UNL1        0.1730
     46 C          15.0893   -3.9756    0.0000 C.3     1  UNL1        0.1851
     47 C          15.0974   -2.9340    0.0000 C.3     1  UNL1        0.2053
     48 C          13.3133   -3.9825    0.0000 C.3     1  UNL1        0.1371
     49 C          14.1953   -2.4132    0.0000 C.3     1  UNL1        0.2465
     50 C          12.4473   -4.4825    0.0000 C.3     1  UNL1        0.1226
     51 C           5.7081    3.0206    0.0000 C.3     1  UNL1        0.1631
     52 C           6.3509    3.7866    0.0000 C.3     1  UNL1        0.1241
     53 C           7.2906    4.1286    0.0000 C.3     1  UNL1        0.1260
     54 C           5.1959    3.8900    0.0000 C.3     1  UNL1        0.1565
     55 C           5.6461    4.7932    0.0000 C.3     1  UNL1        0.2352
     56 C           8.2754    3.9550    0.0000 C.3     1  UNL1        0.1216
     57 C          13.6885   -6.3144    0.0000 C.2     1  UNL1        0.3405
     58 C          16.8213   -3.9957    0.0000 C.2     1  UNL1        0.3399
     59 C          15.9692   -1.4374    0.0000 C.2     1  UNL1        0.3400
     60 C          13.3235   -0.9166    0.0000 C.2     1  UNL1        0.3453
     61 C          14.1885   -7.1804    0.0000 C.ar    1  UNL1        0.0740
     62 C          12.6885   -6.3144    0.0000 C.2     1  UNL1        0.3401
     63 C           5.8765    1.0960    0.0000 C.2     1  UNL1        0.3404
     64 C          13.6885   -8.0465    0.0000 C.ar    1  UNL1        0.0458
     65 C          17.6814   -4.5056    0.0000 C.ar    1  UNL1        0.0661
     66 C          12.1885   -7.1804    0.0000 C.ar    1  UNL1        0.0740
     67 C          12.6885   -8.0465    0.0000 C.ar    1  UNL1        0.0458
     68 C          16.8371   -0.9407    0.0000 C.ar    1  UNL1        0.0661
     69 C          13.3196    0.0834    0.0000 C.ar    1  UNL1        0.1085
     70 C           6.6426    0.4533    0.0000 C.ar    1  UNL1        0.0740
     71 C           5.4952    6.5186    0.0000 C.2     1  UNL1        0.3417
     72 C          15.2300   -7.1644    0.0000 C.ar    1  UNL1       -0.0017
     73 C           9.3835    2.3725    0.0000 C.2     1  UNL1        0.3401
     74 C           7.6274    0.2796    0.0000 C.ar    1  UNL1        0.0458
     75 C           9.2098    1.3877    0.0000 C.ar    1  UNL1        0.0740
     76 C           8.5671    0.6216    0.0000 C.ar    1  UNL1        0.0458
     77 C          14.1953   -8.9565    0.0000 C.ar    1  UNL1        0.1708
     78 C          12.4517    0.5801    0.0000 C.ar    1  UNL1        0.1876
     79 C          12.1816   -8.9565    0.0000 C.ar    1  UNL1        0.1708
     80 C          11.1469   -7.1644    0.0000 C.ar    1  UNL1       -0.0017
     81 C          17.6699   -5.5056    0.0000 C.ar    1  UNL1       -0.0023
     82 C          18.5532   -4.0157    0.0000 C.ar    1  UNL1       -0.0023
     83 C          15.7577   -8.0624    0.0000 C.ar    1  UNL1        0.1628
     84 C          17.7012   -1.4441    0.0000 C.ar    1  UNL1       -0.0023
     85 C          16.8410    0.0593    0.0000 C.ar    1  UNL1       -0.0023
     86 C          15.2369   -8.9645    0.0000 C.ar    1  UNL1        0.2012
     87 C          14.1837    0.5868    0.0000 C.ar    1  UNL1        0.0013
     88 C           5.9608   -0.3343    0.0000 C.ar    1  UNL1       -0.0017
     89 C           4.9216    7.3378    0.0000 C.ar    1  UNL1        0.0662
     90 C          10.2383    1.2226    0.0000 C.ar    1  UNL1       -0.0009
     91 C           8.9082   -0.3626    0.0000 C.ar    1  UNL1        0.1708
     92 C           7.9987   -0.6936    0.0000 C.ar    1  UNL1        0.1708
     93 C          10.6021    0.2466    0.0000 C.ar    1  UNL1        0.1743
     94 C          11.1400   -8.9645    0.0000 C.ar    1  UNL1        0.2012
     95 C          10.6192   -8.0624    0.0000 C.ar    1  UNL1        0.1628
     96 C           9.9325   -0.5512    0.0000 C.ar    1  UNL1        0.2021
     97 C          12.4478    1.5801    0.0000 C.ar    1  UNL1        0.2060
     98 C          19.4134   -4.5257    0.0000 C.ar    1  UNL1        0.1628
     99 C          18.5301   -6.0156    0.0000 C.ar    1  UNL1        0.1628
    100 C           6.3095   -1.3158    0.0000 C.ar    1  UNL1        0.1628
    101 C          14.1799    1.5868    0.0000 C.ar    1  UNL1        0.1630
    102 C           7.3353   -1.4966    0.0000 C.ar    1  UNL1        0.2012
    103 C          17.7089    0.5559    0.0000 C.ar    1  UNL1        0.1628
    104 C          18.5691   -0.9474    0.0000 C.ar    1  UNL1        0.1628
    105 C          19.4018   -5.5256    0.0000 C.ar    1  UNL1        0.2006
    106 C          13.3119    2.0834    0.0000 C.ar    1  UNL1        0.2044
    107 C          18.5730    0.0526    0.0000 C.ar    1  UNL1        0.2006
    108 C           3.9254    7.2506    0.0000 C.ar    1  UNL1       -0.0023
    109 C           5.3442    8.2441    0.0000 C.ar    1  UNL1       -0.0023
    110 C           4.7706    9.0632    0.0000 C.ar    1  UNL1        0.1628
    111 C           3.3518    8.0698    0.0000 C.ar    1  UNL1        0.1628
    112 C           3.7744    8.9761    0.0000 C.ar    1  UNL1        0.2006
    113 H          14.7139   -4.7966    0.0000 H       1  UNL1        0.0801
    114 H          15.6292   -3.6708    0.0000 H       1  UNL1        0.0813
    115 H          15.0985   -2.3140    0.0000 H       1  UNL1        0.0837
    116 H          12.7740   -3.6766    0.0000 H       1  UNL1        0.0670
    117 H          14.7316   -2.1022    0.0000 H       1  UNL1        0.1098
    118 H           5.0980    2.9102    0.0000 H       1  UNL1        0.0790
    119 H          12.2868   -3.8836    0.0000 H       1  UNL1        0.0725
    120 H          11.8273   -4.4825    0.0000 H       1  UNL1        0.0725
    121 H           5.7456    3.9208    0.0000 H       1  UNL1        0.0658
    122 H           7.6030    4.6642    0.0000 H       1  UNL1        0.0659
    123 H           4.8604    4.4114    0.0000 H       1  UNL1        0.0694
    124 H           5.9008    5.3585    0.0000 H       1  UNL1        0.1086
    125 H           8.8124    4.2650    0.0000 H       1  UNL1        0.0725
    126 H           8.0134    3.3931    0.0000 H       1  UNL1        0.0725
    127 H           6.1461    5.3702    0.0000 H       1  UNL1        0.2101
    128 H           3.8679    4.3808    0.0000 H       1  UNL1        0.2102
    129 H          15.5337   -6.6239    0.0000 H       1  UNL1        0.0664
    130 H          10.8432   -6.6239    0.0000 H       1  UNL1        0.0664
    131 H          17.1294   -5.8093    0.0000 H       1  UNL1        0.0663
    132 H          18.5604   -3.3957    0.0000 H       1  UNL1        0.0663
    133 H          17.6988   -2.0640    0.0000 H       1  UNL1        0.0663
    134 H          16.3052    0.3713    0.0000 H       1  UNL1        0.0663
    135 H          14.7218    0.2788    0.0000 H       1  UNL1        0.0665
    136 H           5.3515   -0.2195    0.0000 H       1  UNL1        0.0664
    137 H          10.6313    1.7022    0.0000 H       1  UNL1        0.0664
    138 H           3.6634    6.6887    0.0000 H       1  UNL1        0.0663
    139 H           5.9618    8.2981    0.0000 H       1  UNL1        0.0663
    140 H          13.9891  -10.3572    0.0000 H       1  UNL1        0.2923
    141 H          12.3878  -10.3572    0.0000 H       1  UNL1        0.2923
    142 H          17.0656   -7.5204    0.0000 H       1  UNL1        0.2923
    143 H          16.3536   -9.8348    0.0000 H       1  UNL1        0.2924
    144 H           8.2494   -1.7410    0.0000 H       1  UNL1        0.2923
    145 H           9.0569   -1.6339    0.0000 H       1  UNL1        0.2923
    146 H          10.0234   -9.8348    0.0000 H       1  UNL1        0.2924
    147 H           9.3113   -7.5204    0.0000 H       1  UNL1        0.2923
    148 H           9.8706   -1.9657    0.0000 H       1  UNL1        0.2924
    149 H          11.1919    2.2336    0.0000 H       1  UNL1        0.2924
    150 H          20.8184   -4.3519    0.0000 H       1  UNL1        0.2923
    151 H          19.0518   -7.3317    0.0000 H       1  UNL1        0.2923
    152 H           5.0536   -1.9693    0.0000 H       1  UNL1        0.2923
    153 H           7.2842   -2.9114    0.0000 H       1  UNL1        0.2924
    154 H          15.0416    2.7101    0.0000 H       1  UNL1        0.2923
    155 H          18.2509    1.8638    0.0000 H       1  UNL1        0.2923
    156 H          19.9714   -1.1428    0.0000 H       1  UNL1        0.2923
    157 H          20.8025   -5.7318    0.0000 H       1  UNL1        0.2924
    158 H          13.8438    3.3955    0.0000 H       1  UNL1        0.2924
    159 H          19.4433    1.1692    0.0000 H       1  UNL1        0.2924
    160 H           5.8109   10.0236    0.0000 H       1  UNL1        0.2923
    161 H           2.0000    8.4905    0.0000 H       1  UNL1        0.2923
    162 H           3.4629   10.3572    0.0000 H       1  UNL1        0.2924
@<TRIPOS>BOND
     1     1    48    1
     2     1    49    1
     3     2    45    1
     4     2    57    1
     5     3    46    1
     6     3    58    1
     7     4    47    1
     8     4    59    1
     9     5    53    1
    10     5    55    1
    11     6    49    1
    12     6    60    1
    13     7    50    1
    14     7    62    1
    15     8    51    1
    16     8    63    1
    17     9    52    1
    18     9   127    1
    19    10    54    1
    20    10   128    1
    21    11    55    1
    22    11    71    1
    23    12    56    1
    24    12    73    1
    25    13    57    2
    26    14    58    2
    27    15    59    2
    28    16    60    2
    29    17    62    2
    30    18    78    1
    31    18    93    1
    32    19    63    2
    33    20    77    1
    34    20   140    1
    35    21    71    2
    36    22    73    2
    37    23    79    1
    38    23   141    1
    39    24    83    1
    40    24   142    1
    41    25    86    1
    42    25   143    1
    43    26    91    1
    44    26   144    1
    45    27    92    1
    46    27   145    1
    47    28    94    1
    48    28   146    1
    49    29    95    1
    50    29   147    1
    51    30    96    1
    52    30   148    1
    53    31    97    1
    54    31   149    1
    55    32    98    1
    56    32   150    1
    57    33    99    1
    58    33   151    1
    59    34   100    1
    60    34   152    1
    61    35   102    1
    62    35   153    1
    63    36   101    1
    64    36   154    1
    65    37   103    1
    66    37   155    1
    67    38   104    1
    68    38   156    1
    69    39   105    1
    70    39   157    1
    71    40   106    1
    72    40   158    1
    73    41   107    1
    74    41   159    1
    75    42   110    1
    76    42   160    1
    77    43   111    1
    78    43   161    1
    79    44   112    1
    80    44   162    1
    81    45    46    1
    82    45    48    1
    83    45   113    1
    84    46    47    1
    85    46   114    1
    86    47    49    1
    87    47   115    1
    88    48    50    1
    89    48   116    1
    90    49   117    1
    91    50   119    1
    92    50   120    1
    93    51    52    1
    94    51    54    1
    95    51   118    1
    96    52    53    1
    97    52   121    1
    98    53    56    1
    99    53   122    1
   100    54    55    1
   101    54   123    1
   102    55   124    1
   103    56   125    1
   104    56   126    1
   105    57    61    1
   106    58    65    1
   107    59    68    1
   108    60    69    1
   109    61    64   ar
   110    61    72   ar
   111    62    66    1
   112    63    70    1
   113    64    67    1
   114    64    77   ar
   115    65    81   ar
   116    65    82   ar
   117    66    67   ar
   118    66    80   ar
   119    67    79   ar
   120    68    84   ar
   121    68    85   ar
   122    69    78   ar
   123    69    87   ar
   124    70    74   ar
   125    70    88   ar
   126    71    89    1
   127    72    83   ar
   128    72   129    1
   129    73    75    1
   130    74    76    1
   131    74    92   ar
   132    75    76   ar
   133    75    90   ar
   134    76    91   ar
   135    77    86   ar
   136    78    97   ar
   137    79    94   ar
   138    80    95   ar
   139    80   130    1
   140    81    99   ar
   141    81   131    1
   142    82    98   ar
   143    82   132    1
   144    83    86   ar
   145    84   104   ar
   146    84   133    1
   147    85   103   ar
   148    85   134    1
   149    87   101   ar
   150    87   135    1
   151    88   100   ar
   152    88   136    1
   153    89   108   ar
   154    89   109   ar
   155    90    93   ar
   156    90   137    1
   157    91    96   ar
   158    92   102   ar
   159    93    96   ar
   160    94    95   ar
   161    97   106   ar
   162    98   105   ar
   163    99   105   ar
   164   100   102   ar
   165   101   106   ar
   166   103   107   ar
   167   104   107   ar
   168   108   111   ar
   169   108   138    1
   170   109   110   ar
   171   109   139    1
   172   110   112   ar
   173   111   112   ar
