@<TRIPOS>MOLECULE
IMPHY013646
 222 225 0 0 0
SMALL
GASTEIGER

@<TRIPOS>ATOM
      1 O           9.4651   -4.6900    0.0000 O.3     1  UNL1       -0.3401
      2 O           6.0010   -4.6900    0.0000 O.3     1  UNL1       -0.3407
      3 O           8.5991   -6.1900    0.0000 O.3     1  UNL1       -0.3405
      4 O          12.0632   -5.1900    0.0000 O.3     1  UNL1       -0.3405
      5 O          12.9292   -6.6900    0.0000 O.3     1  UNL1       -0.3401
      6 O           5.1350   -6.1900    0.0000 O.3     1  UNL1       -0.3412
      7 O           7.7331   -3.6900    0.0000 O.3     1  UNL1       -0.3841
      8 O           9.4651   -6.6900    0.0000 O.3     1  UNL1       -0.3864
      9 O           6.0010   -6.6900    0.0000 O.3     1  UNL1       -0.3865
     10 O          14.6613   -4.6900    0.0000 O.3     1  UNL1       -0.3405
     11 O          11.1972   -7.6900    0.0000 O.3     1  UNL1       -0.3841
     12 O           2.5369   -4.6900    0.0000 O.3     1  UNL1       -0.3871
     13 O           2.5369   -6.6900    0.0000 O.3     1  UNL1       -0.3865
     14 O          14.6613   -7.6900    0.0000 O.3     1  UNL1       -0.3864
     15 O          16.3933   -4.6900    0.0000 O.3     1  UNL1       -0.3468
     16 O          16.3933   -6.6900    0.0000 O.3     1  UNL1       -0.3841
     17 O          10.3312   -3.1900    0.0000 O.3     1  UNL1       -0.3924
     18 O           8.5991   -8.1900    0.0000 O.3     1  UNL1       -0.3924
     19 O           3.4030   -8.1900    0.0000 O.3     1  UNL1       -0.3924
     20 O          12.9292   -3.6900    0.0000 O.3     1  UNL1       -0.3924
     21 O           2.5369   -3.6900    0.0000 O.2     1  UNL1       -0.2761
     22 O          18.1254   -1.6900    0.0000 O.3     1  UNL1       -0.3859
     23 O          18.9914   -2.1900    0.0000 O.2     1  UNL1       -0.2758
     24 N           4.2690   -3.6900    0.0000 N.am    1  UNL1       -0.3053
     25 N          18.1254   -3.6900    0.0000 N.am    1  UNL1       -0.3075
     26 C           6.8671   -5.1900    0.0000 C.3     1  UNL1        0.1205
     27 C          10.3312   -5.1900    0.0000 C.3     1  UNL1        0.1184
     28 C           7.7331   -4.6900    0.0000 C.3     1  UNL1        0.1345
     29 C           8.5991   -5.1900    0.0000 C.3     1  UNL1        0.1884
     30 C          10.3312   -6.1900    0.0000 C.3     1  UNL1        0.1144
     31 C           6.8671   -6.1900    0.0000 C.3     1  UNL1        0.1123
     32 C          11.1972   -4.6900    0.0000 C.3     1  UNL1        0.1134
     33 C          11.1972   -6.6900    0.0000 C.3     1  UNL1        0.1341
     34 C           7.7331   -6.6900    0.0000 C.3     1  UNL1        0.1130
     35 C          12.0632   -6.1900    0.0000 C.3     1  UNL1        0.1884
     36 C           5.1350   -5.1900    0.0000 C.3     1  UNL1        0.1808
     37 C           4.2690   -4.6900    0.0000 C.3     1  UNL1        0.1023
     38 C          13.7953   -6.1900    0.0000 C.3     1  UNL1        0.1184
     39 C           3.4030   -5.1900    0.0000 C.3     1  UNL1        0.1065
     40 C           3.4030   -6.1900    0.0000 C.3     1  UNL1        0.1112
     41 C          14.6613   -6.6900    0.0000 C.3     1  UNL1        0.1144
     42 C           4.2690   -6.6900    0.0000 C.3     1  UNL1        0.1130
     43 C          13.7953   -5.1900    0.0000 C.3     1  UNL1        0.1134
     44 C          15.5273   -6.1900    0.0000 C.3     1  UNL1        0.1341
     45 C          11.1972   -3.6900    0.0000 C.3     1  UNL1        0.0730
     46 C           7.7331   -7.6900    0.0000 C.3     1  UNL1        0.0730
     47 C          15.5273   -5.1900    0.0000 C.3     1  UNL1        0.1880
     48 C           4.2690   -7.6900    0.0000 C.3     1  UNL1        0.0730
     49 C          12.9292   -4.6900    0.0000 C.3     1  UNL1        0.0730
     50 C           3.4030   -3.1900    0.0000 C.2     1  UNL1        0.2104
     51 C          16.3933   -3.6900    0.0000 C.3     1  UNL1        0.0718
     52 C          17.2594   -3.1900    0.0000 C.3     1  UNL1        0.0759
     53 C           3.4030   -2.1900    0.0000 C.3     1  UNL1        0.0122
     54 C          17.2594   -2.1900    0.0000 C.3     1  UNL1        0.0938
     55 C          16.3933   -1.6900    0.0000 C.2     1  UNL1       -0.0580
     56 C          18.9914   -3.1900    0.0000 C.2     1  UNL1        0.2134
     57 C          19.8574   -3.6900    0.0000 C.3     1  UNL1        0.0240
     58 C          16.3933   -0.6900    0.0000 C.2     1  UNL1       -0.0855
     59 C          20.7235   -3.1900    0.0000 C.3     1  UNL1       -0.0448
     60 C          15.5273   -0.1900    0.0000 C.3     1  UNL1       -0.0347
     61 C          21.5895   -3.6900    0.0000 C.3     1  UNL1       -0.0526
     62 C          15.5273    0.8100    0.0000 C.3     1  UNL1       -0.0496
     63 C          22.4555   -3.1900    0.0000 C.3     1  UNL1       -0.0530
     64 C          23.3215   -3.6900    0.0000 C.3     1  UNL1       -0.0531
     65 C          14.6613    1.3100    0.0000 C.3     1  UNL1       -0.0528
     66 C          24.1876   -3.1900    0.0000 C.3     1  UNL1       -0.0531
     67 C          14.6613    2.3100    0.0000 C.3     1  UNL1       -0.0530
     68 C          25.0536   -3.6900    0.0000 C.3     1  UNL1       -0.0531
     69 C          25.9196   -3.1900    0.0000 C.3     1  UNL1       -0.0531
     70 C          13.7953    2.8100    0.0000 C.3     1  UNL1       -0.0531
     71 C          26.7856   -3.6900    0.0000 C.3     1  UNL1       -0.0531
     72 C          27.6517   -3.1900    0.0000 C.3     1  UNL1       -0.0531
     73 C          28.5177   -3.6900    0.0000 C.3     1  UNL1       -0.0531
     74 C          29.3837   -3.1900    0.0000 C.3     1  UNL1       -0.0531
     75 C          13.7953    3.8100    0.0000 C.3     1  UNL1       -0.0531
     76 C          30.2497   -3.6900    0.0000 C.3     1  UNL1       -0.0531
     77 C          31.1158   -3.1900    0.0000 C.3     1  UNL1       -0.0531
     78 C          31.9818   -3.6900    0.0000 C.3     1  UNL1       -0.0531
     79 C          12.9292    4.3100    0.0000 C.3     1  UNL1       -0.0531
     80 C          32.8478   -3.1900    0.0000 C.3     1  UNL1       -0.0531
     81 C          33.7139   -3.6900    0.0000 C.3     1  UNL1       -0.0531
     82 C          12.9292    5.3100    0.0000 C.3     1  UNL1       -0.0531
     83 C          34.5799   -3.1900    0.0000 C.3     1  UNL1       -0.0531
     84 C          35.4459   -3.6900    0.0000 C.3     1  UNL1       -0.0531
     85 C          12.0632    5.8100    0.0000 C.3     1  UNL1       -0.0531
     86 C          36.3119   -3.1900    0.0000 C.3     1  UNL1       -0.0531
     87 C          12.0632    6.8100    0.0000 C.3     1  UNL1       -0.0531
     88 C          37.1780   -3.6900    0.0000 C.3     1  UNL1       -0.0531
     89 C          38.0440   -3.1900    0.0000 C.3     1  UNL1       -0.0533
     90 C          11.1972    7.3100    0.0000 C.3     1  UNL1       -0.0533
     91 C          38.9100   -3.6900    0.0000 C.3     1  UNL1       -0.0559
     92 C          11.1972    8.3100    0.0000 C.3     1  UNL1       -0.0559
     93 C          39.7760   -3.1900    0.0000 C.3     1  UNL1       -0.0653
     94 C          10.3312    8.8100    0.0000 C.3     1  UNL1       -0.0653
     95 H           6.8671   -4.5700    0.0000 H       1  UNL1        0.0651
     96 H           9.7942   -5.5000    0.0000 H       1  UNL1        0.0651
     97 H           7.1962   -4.3800    0.0000 H       1  UNL1        0.0671
     98 H           8.5991   -4.5700    0.0000 H       1  UNL1        0.0938
     99 H          10.3312   -6.8100    0.0000 H       1  UNL1        0.0648
    100 H           6.3301   -5.8800    0.0000 H       1  UNL1        0.0647
    101 H          11.7341   -4.3800    0.0000 H       1  UNL1        0.0647
    102 H          10.6603   -7.0000    0.0000 H       1  UNL1        0.0671
    103 H           8.2700   -7.0000    0.0000 H       1  UNL1        0.0647
    104 H          12.0632   -6.8100    0.0000 H       1  UNL1        0.0938
    105 H           5.1350   -4.5700    0.0000 H       1  UNL1        0.0930
    106 H           3.7320   -4.3800    0.0000 H       1  UNL1        0.0575
    107 H          13.7953   -6.8100    0.0000 H       1  UNL1        0.0651
    108 H           3.4030   -4.5700    0.0000 H       1  UNL1        0.0640
    109 H           3.4030   -6.8100    0.0000 H       1  UNL1        0.0646
    110 H          15.1982   -7.0000    0.0000 H       1  UNL1        0.0648
    111 H           4.8059   -7.0000    0.0000 H       1  UNL1        0.0647
    112 H          13.7953   -4.5700    0.0000 H       1  UNL1        0.0647
    113 H          15.5273   -6.8100    0.0000 H       1  UNL1        0.0671
    114 H          11.8078   -3.7977    0.0000 H       1  UNL1        0.0584
    115 H          11.4092   -3.1074    0.0000 H       1  UNL1        0.0584
    116 H           7.1225   -7.5823    0.0000 H       1  UNL1        0.0584
    117 H           7.5210   -8.2726    0.0000 H       1  UNL1        0.0584
    118 H          15.5273   -4.5700    0.0000 H       1  UNL1        0.0937
    119 H           7.1962   -3.3800    0.0000 H       1  UNL1        0.2101
    120 H           4.8059   -3.3800    0.0000 H       1  UNL1        0.1492
    121 H           9.4651   -7.3100    0.0000 H       1  UNL1        0.2100
    122 H           6.0010   -7.3100    0.0000 H       1  UNL1        0.2100
    123 H           4.4810   -8.2726    0.0000 H       1  UNL1        0.0584
    124 H           4.8796   -7.5823    0.0000 H       1  UNL1        0.0584
    125 H          12.3187   -4.5823    0.0000 H       1  UNL1        0.0584
    126 H          12.7172   -5.2726    0.0000 H       1  UNL1        0.0584
    127 H          11.7341   -8.0000    0.0000 H       1  UNL1        0.2101
    128 H           2.0000   -5.0000    0.0000 H       1  UNL1        0.2100
    129 H           2.0000   -6.3800    0.0000 H       1  UNL1        0.2100
    130 H          15.1982   -8.0000    0.0000 H       1  UNL1        0.2100
    131 H          16.9303   -6.3800    0.0000 H       1  UNL1        0.2101
    132 H          10.3312   -2.5700    0.0000 H       1  UNL1        0.2095
    133 H           8.5991   -8.8100    0.0000 H       1  UNL1        0.2095
    134 H          16.1813   -3.1074    0.0000 H       1  UNL1        0.0580
    135 H          15.7828   -3.7977    0.0000 H       1  UNL1        0.0580
    136 H           3.4030   -8.8100    0.0000 H       1  UNL1        0.2095
    137 H          17.7963   -2.8800    0.0000 H       1  UNL1        0.0550
    138 H          13.4662   -3.3800    0.0000 H       1  UNL1        0.2095
    139 H           4.0230   -2.1900    0.0000 H       1  UNL1        0.0322
    140 H           3.4030   -1.5700    0.0000 H       1  UNL1        0.0322
    141 H           2.7830   -2.1900    0.0000 H       1  UNL1        0.0322
    142 H          17.2594   -1.5700    0.0000 H       1  UNL1        0.0657
    143 H          18.1254   -4.3100    0.0000 H       1  UNL1        0.1492
    144 H          15.8564   -2.0000    0.0000 H       1  UNL1        0.0595
    145 H          18.1254   -1.0700    0.0000 H       1  UNL1        0.2103
    146 H          19.4589   -4.1650    0.0000 H       1  UNL1        0.0358
    147 H          20.2560   -4.1650    0.0000 H       1  UNL1        0.0358
    148 H          16.9303   -0.3800    0.0000 H       1  UNL1        0.0570
    149 H          21.1220   -2.7151    0.0000 H       1  UNL1        0.0270
    150 H          20.3249   -2.7151    0.0000 H       1  UNL1        0.0270
    151 H          14.9167   -0.0823    0.0000 H       1  UNL1        0.0307
    152 H          15.3153   -0.7726    0.0000 H       1  UNL1        0.0307
    153 H          21.1910   -4.1650    0.0000 H       1  UNL1        0.0265
    154 H          21.9880   -4.1650    0.0000 H       1  UNL1        0.0265
    155 H          16.1379    0.7023    0.0000 H       1  UNL1        0.0268
    156 H          15.7394    1.3926    0.0000 H       1  UNL1        0.0268
    157 H          22.8540   -2.7151    0.0000 H       1  UNL1        0.0265
    158 H          22.0570   -2.7151    0.0000 H       1  UNL1        0.0265
    159 H          22.9230   -4.1650    0.0000 H       1  UNL1        0.0265
    160 H          23.7201   -4.1650    0.0000 H       1  UNL1        0.0265
    161 H          14.0507    1.4177    0.0000 H       1  UNL1        0.0265
    162 H          14.4492    0.7274    0.0000 H       1  UNL1        0.0265
    163 H          24.5861   -2.7151    0.0000 H       1  UNL1        0.0265
    164 H          23.7890   -2.7151    0.0000 H       1  UNL1        0.0265
    165 H          15.2719    2.2023    0.0000 H       1  UNL1        0.0265
    166 H          14.8733    2.8926    0.0000 H       1  UNL1        0.0265
    167 H          24.6551   -4.1650    0.0000 H       1  UNL1        0.0265
    168 H          25.4521   -4.1650    0.0000 H       1  UNL1        0.0265
    169 H          26.3182   -2.7151    0.0000 H       1  UNL1        0.0265
    170 H          25.5211   -2.7151    0.0000 H       1  UNL1        0.0265
    171 H          26.3871   -4.1650    0.0000 H       1  UNL1        0.0265
    172 H          27.1842   -4.1650    0.0000 H       1  UNL1        0.0265
    173 H          13.1847    2.9177    0.0000 H       1  UNL1        0.0265
    174 H          13.5832    2.2274    0.0000 H       1  UNL1        0.0265
    175 H          28.0502   -2.7151    0.0000 H       1  UNL1        0.0265
    176 H          27.2531   -2.7151    0.0000 H       1  UNL1        0.0265
    177 H          28.1192   -4.1650    0.0000 H       1  UNL1        0.0265
    178 H          28.9162   -4.1650    0.0000 H       1  UNL1        0.0265
    179 H          29.7823   -2.7151    0.0000 H       1  UNL1        0.0265
    180 H          28.9852   -2.7151    0.0000 H       1  UNL1        0.0265
    181 H          14.4058    3.7023    0.0000 H       1  UNL1        0.0265
    182 H          14.0073    4.3926    0.0000 H       1  UNL1        0.0265
    183 H          29.8512   -4.1650    0.0000 H       1  UNL1        0.0265
    184 H          30.6483   -4.1650    0.0000 H       1  UNL1        0.0265
    185 H          31.5143   -2.7151    0.0000 H       1  UNL1        0.0265
    186 H          30.7172   -2.7151    0.0000 H       1  UNL1        0.0265
    187 H          31.5833   -4.1650    0.0000 H       1  UNL1        0.0265
    188 H          32.3803   -4.1650    0.0000 H       1  UNL1        0.0265
    189 H          12.3187    4.4177    0.0000 H       1  UNL1        0.0265
    190 H          12.7172    3.7274    0.0000 H       1  UNL1        0.0265
    191 H          33.2464   -2.7151    0.0000 H       1  UNL1        0.0265
    192 H          32.4493   -2.7151    0.0000 H       1  UNL1        0.0265
    193 H          33.3153   -4.1650    0.0000 H       1  UNL1        0.0265
    194 H          34.1124   -4.1650    0.0000 H       1  UNL1        0.0265
    195 H          34.9784   -2.7151    0.0000 H       1  UNL1        0.0265
    196 H          34.1813   -2.7151    0.0000 H       1  UNL1        0.0265
    197 H          13.5398    5.2023    0.0000 H       1  UNL1        0.0265
    198 H          13.1413    5.8926    0.0000 H       1  UNL1        0.0265
    199 H          35.0474   -4.1650    0.0000 H       1  UNL1        0.0265
    200 H          35.8444   -4.1650    0.0000 H       1  UNL1        0.0265
    201 H          11.4526    5.9177    0.0000 H       1  UNL1        0.0265
    202 H          11.8512    5.2274    0.0000 H       1  UNL1        0.0265
    203 H          36.7105   -2.7151    0.0000 H       1  UNL1        0.0265
    204 H          35.9134   -2.7151    0.0000 H       1  UNL1        0.0265
    205 H          36.7794   -4.1650    0.0000 H       1  UNL1        0.0265
    206 H          37.5765   -4.1650    0.0000 H       1  UNL1        0.0265
    207 H          12.6738    6.7023    0.0000 H       1  UNL1        0.0265
    208 H          12.2753    7.3926    0.0000 H       1  UNL1        0.0265
    209 H          38.4425   -2.7151    0.0000 H       1  UNL1        0.0265
    210 H          37.6454   -2.7151    0.0000 H       1  UNL1        0.0265
    211 H          10.5866    7.4177    0.0000 H       1  UNL1        0.0265
    212 H          10.9851    6.7274    0.0000 H       1  UNL1        0.0265
    213 H          38.5115   -4.1650    0.0000 H       1  UNL1        0.0263
    214 H          39.3085   -4.1650    0.0000 H       1  UNL1        0.0263
    215 H          11.8078    8.2023    0.0000 H       1  UNL1        0.0263
    216 H          11.4092    8.8926    0.0000 H       1  UNL1        0.0263
    217 H          40.0860   -3.7269    0.0000 H       1  UNL1        0.0230
    218 H          40.3130   -2.8800    0.0000 H       1  UNL1        0.0230
    219 H          39.4660   -2.6531    0.0000 H       1  UNL1        0.0230
    220 H          10.6412    9.3469    0.0000 H       1  UNL1        0.0230
    221 H           9.7942    9.1200    0.0000 H       1  UNL1        0.0230
    222 H          10.0212    8.2731    0.0000 H       1  UNL1        0.0230
@<TRIPOS>BOND
     1    27     1    1
     2    29     1    1
     3    26     2    1
     4    36     2    1
     5     3    29    1
     6     3    34    1
     7     4    32    1
     8     4    35    1
     9    35     5    1
    10    38     5    1
    11     6    36    1
    12     6    42    1
    13    28     7    1
    14     7   119    1
    15    30     8    1
    16     8   121    1
    17    31     9    1
    18     9   122    1
    19    10    43    1
    20    10    47    1
    21    33    11    1
    22    11   127    1
    23    39    12    1
    24    12   128    1
    25    40    13    1
    26    13   129    1
    27    41    14    1
    28    14   130    1
    29    47    15    1
    30    15    51    1
    31    44    16    1
    32    16   131    1
    33    17    45    1
    34    17   132    1
    35    18    46    1
    36    18   133    1
    37    19    48    1
    38    19   136    1
    39    20    49    1
    40    20   138    1
    41    21    50    2
    42    54    22    1
    43    22   145    1
    44    23    56    2
    45    37    24    1
    46    24    50   am
    47    24   120    1
    48    25    52    1
    49    25    56   am
    50    25   143    1
    51    26    28    1
    52    26    31    1
    53    26    95    1
    54    27    30    1
    55    27    32    1
    56    27    96    1
    57    28    29    1
    58    28    97    1
    59    29    98    1
    60    30    33    1
    61    30    99    1
    62    31    34    1
    63    31   100    1
    64    32    45    1
    65    32   101    1
    66    33    35    1
    67    33   102    1
    68    34    46    1
    69    34   103    1
    70    35   104    1
    71    36    37    1
    72    36   105    1
    73    37    39    1
    74    37   106    1
    75    38    41    1
    76    38    43    1
    77    38   107    1
    78    39    40    1
    79    39   108    1
    80    40    42    1
    81    40   109    1
    82    41    44    1
    83    41   110    1
    84    42    48    1
    85    42   111    1
    86    43    49    1
    87    43   112    1
    88    44    47    1
    89    44   113    1
    90    45   114    1
    91    45   115    1
    92    46   116    1
    93    46   117    1
    94    47   118    1
    95    48   123    1
    96    48   124    1
    97    49   125    1
    98    49   126    1
    99    50    53    1
   100    51    52    1
   101    51   134    1
   102    51   135    1
   103    52    54    1
   104    52   137    1
   105    53   139    1
   106    53   140    1
   107    53   141    1
   108    54    55    1
   109    54   142    1
   110    55    58    2
   111    55   144    1
   112    56    57    1
   113    57    59    1
   114    57   146    1
   115    57   147    1
   116    58    60    1
   117    58   148    1
   118    59    61    1
   119    59   149    1
   120    59   150    1
   121    60    62    1
   122    60   151    1
   123    60   152    1
   124    61    63    1
   125    61   153    1
   126    61   154    1
   127    62    65    1
   128    62   155    1
   129    62   156    1
   130    63    64    1
   131    63   157    1
   132    63   158    1
   133    64    66    1
   134    64   159    1
   135    64   160    1
   136    65    67    1
   137    65   161    1
   138    65   162    1
   139    66    68    1
   140    66   163    1
   141    66   164    1
   142    67    70    1
   143    67   165    1
   144    67   166    1
   145    68    69    1
   146    68   167    1
   147    68   168    1
   148    69    71    1
   149    69   169    1
   150    69   170    1
   151    70    75    1
   152    70   173    1
   153    70   174    1
   154    71    72    1
   155    71   171    1
   156    71   172    1
   157    72    73    1
   158    72   175    1
   159    72   176    1
   160    73    74    1
   161    73   177    1
   162    73   178    1
   163    74    76    1
   164    74   179    1
   165    74   180    1
   166    75    79    1
   167    75   181    1
   168    75   182    1
   169    76    77    1
   170    76   183    1
   171    76   184    1
   172    77    78    1
   173    77   185    1
   174    77   186    1
   175    78    80    1
   176    78   187    1
   177    78   188    1
   178    79    82    1
   179    79   189    1
   180    79   190    1
   181    80    81    1
   182    80   191    1
   183    80   192    1
   184    81    83    1
   185    81   193    1
   186    81   194    1
   187    82    85    1
   188    82   197    1
   189    82   198    1
   190    83    84    1
   191    83   195    1
   192    83   196    1
   193    84    86    1
   194    84   199    1
   195    84   200    1
   196    85    87    1
   197    85   201    1
   198    85   202    1
   199    86    88    1
   200    86   203    1
   201    86   204    1
   202    87    90    1
   203    87   207    1
   204    87   208    1
   205    88    89    1
   206    88   205    1
   207    88   206    1
   208    89    91    1
   209    89   209    1
   210    89   210    1
   211    90    92    1
   212    90   211    1
   213    90   212    1
   214    91    93    1
   215    91   213    1
   216    91   214    1
   217    92    94    1
   218    92   215    1
   219    92   216    1
   220    93   217    1
   221    93   218    1
   222    93   219    1
   223    94   220    1
   224    94   221    1
   225    94   222    1
