@<TRIPOS>MOLECULE
IMPHY001212
 17 18 0 0 0
SMALL
GASTEIGER

@<TRIPOS>ATOM
      1 O           4.6660   -1.4827    0.0000 O.2     1  UNL1       -0.4627
      2 O           4.6660    1.5173    0.0000 O.2     1  UNL1       -0.2871
      3 C           3.8000    0.0173    0.0000 C.ar    1  UNL1        0.0639
      4 C           3.8000   -0.9827    0.0000 C.ar    1  UNL1        0.1384
      5 C           2.9061    0.5520    0.0000 C.ar    1  UNL1       -0.0474
      6 C           4.6660    0.5173    0.0000 C.ar    1  UNL1        0.1925
      7 C           2.9061   -1.5173    0.0000 C.ar    1  UNL1       -0.0186
      8 C           2.0000    0.0381    0.0000 C.ar    1  UNL1       -0.0609
      9 C           2.0000   -1.0035    0.0000 C.ar    1  UNL1       -0.0582
     10 C           5.5321    0.0173    0.0000 C.ar    1  UNL1        0.0207
     11 C           5.5321   -0.9827    0.0000 C.ar    1  UNL1        0.0961
     12 H           2.9132    1.1720    0.0000 H       1  UNL1        0.0626
     13 H           2.9132   -2.1373    0.0000 H       1  UNL1        0.0654
     14 H           1.4643    0.3502    0.0000 H       1  UNL1        0.0618
     15 H           1.4643   -1.3156    0.0000 H       1  UNL1        0.0619
     16 H           6.0690    0.3273    0.0000 H       1  UNL1        0.0687
     17 H           6.0690   -1.2927    0.0000 H       1  UNL1        0.1031
@<TRIPOS>BOND
     1     1     4   ar
     2     1    11   ar
     3     2     6    2
     4     3     4   ar
     5     3     5   ar
     6     3     6   ar
     7     4     7   ar
     8     5     8   ar
     9     5    12    1
    10     6    10   ar
    11     7     9   ar
    12     7    13    1
    13     8     9   ar
    14     8    14    1
    15     9    15    1
    16    10    11   ar
    17    10    16    1
    18    11    17    1
