@<TRIPOS>MOLECULE
IMPHY017142
 36 36 0 0 0
SMALL
GASTEIGER

@<TRIPOS>ATOM
      1 O           2.8660   -3.0000    0.0000 O.3     1  UNL1       -0.4914
      2 O           6.3301    3.0000    0.0000 O.3     1  UNL1       -0.4645
      3 O           4.5981   -4.0000    0.0000 O.3     1  UNL1       -0.4915
      4 O           8.0622    3.0000    0.0000 O.2     1  UNL1       -0.2512
      5 C           4.5981   -1.0000    0.0000 C.ar    1  UNL1       -0.0216
      6 C           5.4641    1.5000    0.0000 C.3     1  UNL1       -0.0000
      7 C           4.5981    0.0000    0.0000 C.2     1  UNL1       -0.0583
      8 C           3.7320   -1.5000    0.0000 C.ar    1  UNL1       -0.0092
      9 C           5.4641    0.5000    0.0000 C.2     1  UNL1       -0.0803
     10 C           3.7320   -2.5000    0.0000 C.ar    1  UNL1        0.1620
     11 C           6.3301    2.0000    0.0000 C.3     1  UNL1        0.0959
     12 C           5.4641   -1.5000    0.0000 C.ar    1  UNL1       -0.0509
     13 C           4.5981   -3.0000    0.0000 C.ar    1  UNL1        0.1615
     14 C           5.4641   -2.5000    0.0000 C.ar    1  UNL1       -0.0157
     15 C           2.0000   -2.5000    0.0000 C.3     1  UNL1        0.0790
     16 C           7.1962    3.5000    0.0000 C.2     1  UNL1        0.3040
     17 C           5.4641   -4.5000    0.0000 C.3     1  UNL1        0.0790
     18 C           7.1962    4.5000    0.0000 C.3     1  UNL1        0.0332
     19 H           5.2520    2.0826    0.0000 H       1  UNL1        0.0340
     20 H           4.8535    1.3923    0.0000 H       1  UNL1        0.0340
     21 H           4.0611    0.3100    0.0000 H       1  UNL1        0.0620
     22 H           3.1951   -1.1900    0.0000 H       1  UNL1        0.0661
     23 H           6.0010    0.1900    0.0000 H       1  UNL1        0.0573
     24 H           6.5422    1.4174    0.0000 H       1  UNL1        0.0700
     25 H           6.9407    2.1077    0.0000 H       1  UNL1        0.0700
     26 H           6.0010   -1.1900    0.0000 H       1  UNL1        0.0625
     27 H           6.0010   -2.8100    0.0000 H       1  UNL1        0.0655
     28 H           2.3100   -1.9631    0.0000 H       1  UNL1        0.0660
     29 H           1.4631   -2.1900    0.0000 H       1  UNL1        0.0660
     30 H           1.6900   -3.0369    0.0000 H       1  UNL1        0.0660
     31 H           5.1541   -5.0369    0.0000 H       1  UNL1        0.0660
     32 H           6.0010   -4.8100    0.0000 H       1  UNL1        0.0660
     33 H           5.7741   -3.9631    0.0000 H       1  UNL1        0.0660
     34 H           7.8162    4.5000    0.0000 H       1  UNL1        0.0342
     35 H           7.1962    5.1200    0.0000 H       1  UNL1        0.0342
     36 H           6.5762    4.5000    0.0000 H       1  UNL1        0.0342
@<TRIPOS>BOND
     1     1    10    1
     2     1    15    1
     3     2    11    1
     4     2    16    1
     5     3    13    1
     6     3    17    1
     7     4    16    2
     8     5     7    1
     9     5     8   ar
    10     5    12   ar
    11     6     9    1
    12     6    11    1
    13     6    19    1
    14     6    20    1
    15     7     9    2
    16     7    21    1
    17     8    10   ar
    18     8    22    1
    19     9    23    1
    20    10    13   ar
    21    11    24    1
    22    11    25    1
    23    12    14   ar
    24    12    26    1
    25    13    14   ar
    26    14    27    1
    27    15    28    1
    28    15    29    1
    29    15    30    1
    30    16    18    1
    31    17    31    1
    32    17    32    1
    33    17    33    1
    34    18    34    1
    35    18    35    1
    36    18    36    1
