@<TRIPOS>MOLECULE
IMPHY012834
 43 46 0 0 0
SMALL
GASTEIGER

@<TRIPOS>ATOM
      1 O           4.2528    1.0801    0.0000 O.3     1  UNL1       -0.3822
      2 N           6.6882   -0.5205    0.0000 N.3     1  UNL1       -0.2942
      3 N           3.2922   -0.4605    0.0000 N.ar    1  UNL1       -0.3554
      4 C           6.9470    0.4454    0.0000 C.3     1  UNL1        0.0166
      5 C           4.9284    0.3428    0.0000 C.3     1  UNL1        0.1096
      6 C           8.3460   -0.0634    0.0000 C.3     1  UNL1       -0.0306
      7 C           6.5764    1.7940    0.0000 C.2     1  UNL1       -0.0536
      8 C           8.0872   -1.0294    0.0000 C.3     1  UNL1        0.0002
      9 C           4.2856   -0.4232    0.0000 C.ar    1  UNL1        0.0537
     10 C           5.7104    1.2940    0.0000 C.3     1  UNL1        0.0207
     11 C           5.6124   -1.5366    0.0000 C.3     1  UNL1        0.0267
     12 C           4.6276   -1.3629    0.0000 C.ar    1  UNL1       -0.0023
     13 C           4.9720    1.3419    0.0000 C.3     1  UNL1       -0.0299
     14 C           3.8427   -1.9729    0.0000 C.ar    1  UNL1        0.0044
     15 C           3.0190   -1.4163    0.0000 C.ar    1  UNL1        0.0470
     16 C           6.8353    2.7600    0.0000 C.2     1  UNL1       -0.0863
     17 C           3.7855   -3.0068    0.0000 C.ar    1  UNL1       -0.0523
     18 C           2.0811   -1.8550    0.0000 C.ar    1  UNL1       -0.0378
     19 C           6.1282    3.4671    0.0000 C.3     1  UNL1       -0.0465
     20 C           2.8579   -3.4671    0.0000 C.ar    1  UNL1       -0.0611
     21 C           2.0000   -2.8873    0.0000 C.ar    1  UNL1       -0.0598
     22 H           7.4028    0.8658    0.0000 H       1  UNL1        0.0378
     23 H           8.9399   -0.2412    0.0000 H       1  UNL1        0.0284
     24 H           8.5409    0.5251    0.0000 H       1  UNL1        0.0284
     25 H           7.8922   -1.6179    0.0000 H       1  UNL1        0.0427
     26 H           8.6811   -1.2071    0.0000 H       1  UNL1        0.0427
     27 H           5.4057    1.8340    0.0000 H       1  UNL1        0.0473
     28 H           5.1675    0.9946    0.0000 H       1  UNL1        0.0473
     29 H           5.3780   -2.1106    0.0000 H       1  UNL1        0.0477
     30 H           6.1238   -1.8871    0.0000 H       1  UNL1        0.0477
     31 H           5.5914    1.3148    0.0000 H       1  UNL1        0.0261
     32 H           4.9990    1.9613    0.0000 H       1  UNL1        0.0261
     33 H           4.3526    1.3689    0.0000 H       1  UNL1        0.0261
     34 H           2.9096    0.0274    0.0000 H       1  UNL1        0.1657
     35 H           7.4341    2.9204    0.0000 H       1  UNL1        0.0569
     36 H           4.4392    1.6714    0.0000 H       1  UNL1        0.2107
     37 H           4.3032   -3.3480    0.0000 H       1  UNL1        0.0624
     38 H           1.5714   -1.5020    0.0000 H       1  UNL1        0.0638
     39 H           6.5666    3.9055    0.0000 H       1  UNL1        0.0272
     40 H           5.6897    3.9055    0.0000 H       1  UNL1        0.0272
     41 H           5.6897    3.0287    0.0000 H       1  UNL1        0.0272
     42 H           2.8165   -4.0857    0.0000 H       1  UNL1        0.0618
     43 H           1.4415   -3.1565    0.0000 H       1  UNL1        0.0618
@<TRIPOS>BOND
     1     1     5    1
     2     1    36    1
     3     2     8    1
     4     2    10    1
     5     2    11    1
     6     3     9   ar
     7     3    15   ar
     8     3    34    1
     9     4     5    1
    10     4     6    1
    11     4     7    1
    12     4    22    1
    13     5     9    1
    14     5    13    1
    15     6     8    1
    16     6    23    1
    17     6    24    1
    18     7    10    1
    19     7    16    2
    20     8    25    1
    21     8    26    1
    22     9    12   ar
    23    10    27    1
    24    10    28    1
    25    11    12    1
    26    11    29    1
    27    11    30    1
    28    12    14   ar
    29    13    31    1
    30    13    32    1
    31    13    33    1
    32    14    15   ar
    33    14    17   ar
    34    15    18   ar
    35    16    19    1
    36    16    35    1
    37    17    20   ar
    38    17    37    1
    39    18    21   ar
    40    18    38    1
    41    19    39    1
    42    19    40    1
    43    19    41    1
    44    20    21   ar
    45    20    42    1
    46    21    43    1
