@<TRIPOS>MOLECULE
IMPHY016973
 33 32 0 0 0
SMALL
GASTEIGER

@<TRIPOS>ATOM
      1 O           5.4641    0.7500    0.0000 O.3     1  UNL1       -0.3797
      2 C           2.8660    0.2500    0.0000 C.3     1  UNL1       -0.0446
      3 C           8.0622    0.2500    0.0000 C.3     1  UNL1       -0.0446
      4 C           3.7320    0.7500    0.0000 C.3     1  UNL1       -0.0271
      5 C           7.1962    0.7500    0.0000 C.3     1  UNL1       -0.0271
      6 C           4.5981    0.2500    0.0000 C.3     1  UNL1        0.0479
      7 C           6.3301    0.2500    0.0000 C.3     1  UNL1        0.0479
      8 C           2.0000    0.7500    0.0000 C.3     1  UNL1       -0.0626
      9 C           2.8660   -0.7500    0.0000 C.3     1  UNL1       -0.0626
     10 C           8.9282    0.7500    0.0000 C.3     1  UNL1       -0.0626
     11 C           8.0622   -0.7500    0.0000 C.3     1  UNL1       -0.0626
     12 H           2.8660    0.8700    0.0000 H       1  UNL1        0.0296
     13 H           8.0622    0.8700    0.0000 H       1  UNL1        0.0296
     14 H           4.1306    1.2250    0.0000 H       1  UNL1        0.0290
     15 H           3.3335    1.2250    0.0000 H       1  UNL1        0.0290
     16 H           7.5947    1.2250    0.0000 H       1  UNL1        0.0290
     17 H           6.7976    1.2250    0.0000 H       1  UNL1        0.0290
     18 H           4.1996   -0.2249    0.0000 H       1  UNL1        0.0560
     19 H           4.9966   -0.2249    0.0000 H       1  UNL1        0.0560
     20 H           5.9316   -0.2249    0.0000 H       1  UNL1        0.0560
     21 H           6.7287   -0.2249    0.0000 H       1  UNL1        0.0560
     22 H           2.3100    1.2869    0.0000 H       1  UNL1        0.0232
     23 H           1.4631    1.0600    0.0000 H       1  UNL1        0.0232
     24 H           1.6900    0.2131    0.0000 H       1  UNL1        0.0232
     25 H           2.2460   -0.7500    0.0000 H       1  UNL1        0.0232
     26 H           2.8660   -1.3700    0.0000 H       1  UNL1        0.0232
     27 H           3.4860   -0.7500    0.0000 H       1  UNL1        0.0232
     28 H           9.2382    0.2131    0.0000 H       1  UNL1        0.0232
     29 H           9.4651    1.0600    0.0000 H       1  UNL1        0.0232
     30 H           8.6182    1.2869    0.0000 H       1  UNL1        0.0232
     31 H           7.4422   -0.7500    0.0000 H       1  UNL1        0.0232
     32 H           8.0622   -1.3700    0.0000 H       1  UNL1        0.0232
     33 H           8.6822   -0.7500    0.0000 H       1  UNL1        0.0232
@<TRIPOS>BOND
     1     1     6    1
     2     1     7    1
     3     2     4    1
     4     2     8    1
     5     2     9    1
     6     2    12    1
     7     3     5    1
     8     3    10    1
     9     3    11    1
    10     3    13    1
    11     4     6    1
    12     4    14    1
    13     4    15    1
    14     5     7    1
    15     5    16    1
    16     5    17    1
    17     6    18    1
    18     6    19    1
    19     7    20    1
    20     7    21    1
    21     8    22    1
    22     8    23    1
    23     8    24    1
    24     9    25    1
    25     9    26    1
    26     9    27    1
    27    10    28    1
    28    10    29    1
    29    10    30    1
    30    11    31    1
    31    11    32    1
    32    11    33    1
