@<TRIPOS>MOLECULE
IMPHY001702
 255 272 0 0 0
SMALL
GASTEIGER

@<TRIPOS>ATOM
      1 O          12.2365   -2.8817    0.0000 O.3     1  UNL1       -0.3281
      2 O          13.1185   -5.4232    0.0000 O.3     1  UNL1       -0.4512
      3 O          14.8887   -4.4264    0.0000 O.3     1  UNL1       -0.4500
      4 O          13.7131   -1.9286    0.0000 O.3     1  UNL1       -0.4475
      5 O          13.4729   -1.4130    0.0000 O.3     1  UNL1       -0.4275
      6 O          11.1277   -5.3892    0.0000 O.3     1  UNL1       -0.4584
      7 O          12.1577   -5.3725    0.0000 O.2     1  UNL1       -0.2449
      8 O          14.0054   -5.9163    0.0000 O.2     1  UNL1       -0.2449
      9 O          12.0806   -1.9274    0.0000 O.2     1  UNL1       -0.2448
     10 O          15.2206   -0.5898    0.0000 O.2     1  UNL1       -0.2449
     11 O          12.1277   -7.1212    0.0000 O.2     1  UNL1       -0.2449
     12 O          10.9290   -0.9560    0.0000 O.3     1  UNL1       -0.4476
     13 O          12.6245   -9.7574    0.0000 O.3     1  UNL1       -0.5028
     14 O          11.6308   -9.7574    0.0000 O.3     1  UNL1       -0.5028
     15 O          15.6969   -7.9993    0.0000 O.3     1  UNL1       -0.5032
     16 O           8.5772   -7.8102    0.0000 O.3     1  UNL1       -0.4476
     17 O          14.6728   -9.7732    0.0000 O.3     1  UNL1       -0.5009
     18 O          10.0831   -9.9053    0.0000 O.3     1  UNL1       -0.5009
     19 O          10.2978    1.1272    0.0000 O.3     1  UNL1       -0.5008
     20 O          16.5744   -8.4461    0.0000 O.3     1  UNL1       -0.5032
     21 O          18.3410   -5.4664    0.0000 O.3     1  UNL1       -0.5032
     22 O          13.7167    1.9910    0.0000 O.3     1  UNL1       -0.5032
     23 O          11.7557    2.5548    0.0000 O.3     1  UNL1       -0.5008
     24 O          18.3179   -7.4662    0.0000 O.3     1  UNL1       -0.5009
     25 O          17.9211   -1.2222    0.0000 O.3     1  UNL1       -0.5032
     26 O          16.2006   -4.2288    0.0000 O.3     1  UNL1       -0.5032
     27 O          17.9288   -3.2222    0.0000 O.3     1  UNL1       -0.5009
     28 O           8.3763   -3.8330    0.0000 O.3     1  UNL1       -0.4512
     29 O           7.0552   -6.5264    0.0000 O.3     1  UNL1       -0.4464
     30 O           9.8143    0.7046    0.0000 O.3     1  UNL1       -0.5009
     31 O           6.3809   -3.9680    0.0000 O.3     1  UNL1       -0.4498
     32 O           7.8189    0.5695    0.0000 O.3     1  UNL1       -0.5028
     33 O           9.1554   -5.7371    0.0000 O.3     1  UNL1       -0.3846
     34 O          10.2950   -3.4389    0.0000 O.3     1  UNL1       -0.4584
     35 O           9.0323  -10.1928    0.0000 O.3     1  UNL1       -0.5008
     36 O           7.0548   -2.8234    0.0000 O.2     1  UNL1       -0.2449
     37 O           7.9196  -11.2786    0.0000 O.3     1  UNL1       -0.5008
     38 O           5.6168   -7.3609    0.0000 O.2     1  UNL1       -0.2448
     39 O          10.0571    6.4632    0.0000 O.3     1  UNL1       -0.4512
     40 O           5.9098  -10.8833    0.0000 O.3     1  UNL1       -0.5032
     41 O          12.3978    5.6974    0.0000 O.3     1  UNL1       -0.4498
     42 O           8.0021    0.3740    0.0000 O.3     1  UNL1       -0.5028
     43 O          11.5202    0.4672    0.0000 O.3     1  UNL1       -0.4476
     44 O          11.7492    3.8055    0.0000 O.3     1  UNL1       -0.4464
     45 O          12.7793    7.1900    0.0000 O.3     1  UNL1       -0.3846
     46 O           5.0598   -6.6615    0.0000 O.2     1  UNL1       -0.2970
     47 O          11.2594   -2.1861    0.0000 O.2     1  UNL1       -0.2449
     48 O           9.7340    1.4453    0.0000 O.3     1  UNL1       -0.5009
     49 O          10.5745    7.8650    0.0000 O.3     1  UNL1       -0.4584
     50 O           4.5529   -4.5929    0.0000 O.2     1  UNL1       -0.2449
     51 O           9.4537    5.1210    0.0000 O.2     1  UNL1       -0.2970
     52 O          10.1726    8.1460    0.0000 O.2     1  UNL1       -0.2449
     53 O          10.6710    2.2026    0.0000 O.2     1  UNL1       -0.2448
     54 O          12.7305    3.9976    0.0000 O.2     1  UNL1       -0.2449
     55 O           8.6706    7.9815    0.0000 O.2     1  UNL1       -0.2449
     56 O          13.8770    0.0461    0.0000 O.3     1  UNL1       -0.5008
     57 O           6.0777    7.4316    0.0000 O.3     1  UNL1       -0.5028
     58 O           6.1024    8.4250    0.0000 O.3     1  UNL1       -0.5028
     59 O           2.2730   -2.5100    0.0000 O.3     1  UNL1       -0.5032
     60 O           5.1492   -0.5794    0.0000 O.3     1  UNL1       -0.5032
     61 O           7.7589    4.3166    0.0000 O.3     1  UNL1       -0.5032
     62 O           6.0111    5.3844    0.0000 O.3     1  UNL1       -0.5009
     63 O          14.9736    1.4758    0.0000 O.3     1  UNL1       -0.5008
     64 O          14.5355    3.0955    0.0000 O.3     1  UNL1       -0.5032
     65 O           3.1538   -0.7144    0.0000 O.3     1  UNL1       -0.5009
     66 O           6.1376   10.4730    0.0000 O.3     1  UNL1       -0.5009
     67 O           7.9364   11.4527    0.0000 O.3     1  UNL1       -0.5032
     68 O          16.3317    3.8200    0.0000 O.3     1  UNL1       -0.5032
     69 O          15.6662    7.2196    0.0000 O.3     1  UNL1       -0.5032
     70 O          16.9804    5.7120    0.0000 O.3     1  UNL1       -0.5009
     71 C          13.1185   -4.4232    0.0000 C.3     1  UNL1        0.1730
     72 C          14.0285   -3.9164    0.0000 C.3     1  UNL1        0.1851
     73 C          14.0366   -2.8748    0.0000 C.3     1  UNL1        0.2053
     74 C          12.2525   -3.9232    0.0000 C.3     1  UNL1        0.1371
     75 C          13.1345   -2.3540    0.0000 C.3     1  UNL1        0.2465
     76 C          11.3865   -4.4232    0.0000 C.3     1  UNL1        0.1226
     77 C          12.6277   -6.2552    0.0000 C.2     1  UNL1        0.3405
     78 C          14.8772   -5.4263    0.0000 C.2     1  UNL1        0.3399
     79 C          12.8914   -1.3420    0.0000 C.2     1  UNL1        0.3436
     80 C          13.1277   -7.1212    0.0000 C.ar    1  UNL1        0.0740
     81 C          14.4570   -1.2355    0.0000 C.2     1  UNL1        0.3417
     82 C          11.6277   -6.2552    0.0000 C.2     1  UNL1        0.3401
     83 C          12.6277   -7.9872    0.0000 C.ar    1  UNL1        0.0458
     84 C          15.7373   -5.9363    0.0000 C.ar    1  UNL1        0.0661
     85 C          11.1277   -7.1212    0.0000 C.ar    1  UNL1        0.0740
     86 C          11.6277   -7.9872    0.0000 C.ar    1  UNL1        0.0458
     87 C          12.5680   -0.3958    0.0000 C.ar    1  UNL1        0.1085
     88 C          15.3250   -1.7322    0.0000 C.ar    1  UNL1        0.0662
     89 C          14.1692   -7.1052    0.0000 C.ar    1  UNL1       -0.0017
     90 C          13.1345   -8.8972    0.0000 C.ar    1  UNL1        0.1708
     91 C          11.1208   -8.8972    0.0000 C.ar    1  UNL1        0.1708
     92 C          10.0862   -7.1052    0.0000 C.ar    1  UNL1       -0.0009
     93 C          11.5868   -0.2028    0.0000 C.ar    1  UNL1        0.1876
     94 C          16.6091   -5.4463    0.0000 C.ar    1  UNL1       -0.0023
     95 C          15.7258   -6.9362    0.0000 C.ar    1  UNL1       -0.0023
     96 C          13.2651    0.3782    0.0000 C.ar    1  UNL1        0.0013
     97 C          14.6969   -8.0032    0.0000 C.ar    1  UNL1        0.1628
     98 C          14.1761   -8.9053    0.0000 C.ar    1  UNL1        0.2012
     99 C           9.5584   -8.0032    0.0000 C.ar    1  UNL1        0.1743
    100 C          15.3288   -2.7322    0.0000 C.ar    1  UNL1       -0.0023
    101 C          16.1891   -1.2289    0.0000 C.ar    1  UNL1       -0.0023
    102 C          10.0792   -8.9053    0.0000 C.ar    1  UNL1        0.2021
    103 C          11.2347    0.7776    0.0000 C.ar    1  UNL1        0.2060
    104 C          16.5860   -7.4462    0.0000 C.ar    1  UNL1        0.1628
    105 C          17.4693   -5.9563    0.0000 C.ar    1  UNL1        0.1628
    106 C          12.9358    1.3664    0.0000 C.ar    1  UNL1        0.1630
    107 C          11.9137    1.5674    0.0000 C.ar    1  UNL1        0.2044
    108 C          17.4577   -6.9562    0.0000 C.ar    1  UNL1        0.2006
    109 C          17.0570   -1.7255    0.0000 C.ar    1  UNL1        0.1628
    110 C          16.1968   -3.2288    0.0000 C.ar    1  UNL1        0.1628
    111 C          17.0609   -2.7255    0.0000 C.ar    1  UNL1        0.2006
    112 C           9.9313   -1.0235    0.0000 C.ar    1  UNL1        0.1743
    113 C           7.9195   -8.5634    0.0000 C.ar    1  UNL1        0.1876
    114 C           9.4934   -1.9251    0.0000 C.ar    1  UNL1       -0.0009
    115 C           9.3740   -0.1933    0.0000 C.ar    1  UNL1        0.2021
    116 C           7.9359   -4.7308    0.0000 C.3     1  UNL1        0.1728
    117 C           8.4932   -1.9889    0.0000 C.ar    1  UNL1        0.0740
    118 C           6.9382   -4.7983    0.0000 C.3     1  UNL1        0.1858
    119 C           7.9359   -1.1586    0.0000 C.ar    1  UNL1        0.0458
    120 C           6.9383   -8.3704    0.0000 C.ar    1  UNL1        0.1085
    121 C           8.3762   -0.2608    0.0000 C.ar    1  UNL1        0.1708
    122 C           8.9240   -4.7643    0.0000 C.3     1  UNL1        0.1296
    123 C           8.2716   -9.5438    0.0000 C.ar    1  UNL1        0.2060
    124 C           6.4978   -5.6961    0.0000 C.3     1  UNL1        0.1979
    125 C           8.0528   -2.8867    0.0000 C.2     1  UNL1        0.3405
    126 C           8.9239   -1.1251    0.0000 C.ar    1  UNL1        0.0458
    127 C           9.7910   -4.2895    0.0000 C.3     1  UNL1        0.1222
    128 C           6.6148   -7.4242    0.0000 C.2     1  UNL1        0.3438
    129 C           6.2411   -9.1444    0.0000 C.ar    1  UNL1        0.0013
    130 C           7.5925  -10.3336    0.0000 C.ar    1  UNL1        0.2044
    131 C           9.7910   -1.5999    0.0000 C.ar    1  UNL1        0.0740
    132 C           6.5704  -10.1326    0.0000 C.ar    1  UNL1        0.1630
    133 C           8.8847   -0.0961    0.0000 C.ar    1  UNL1        0.1708
    134 C          11.0568    6.4384    0.0000 C.3     1  UNL1        0.1728
    135 C           5.5001   -5.7636    0.0000 C.2     1  UNL1        0.1645
    136 C          11.4164    5.5052    0.0000 C.3     1  UNL1        0.1858
    137 C          10.2950   -2.4503    0.0000 C.2     1  UNL1        0.3401
    138 C          11.7813    7.1277    0.0000 C.3     1  UNL1        0.1296
    139 C          10.6791   -1.0786    0.0000 C.ar    1  UNL1       -0.0009
    140 C           9.7605    0.4456    0.0000 C.ar    1  UNL1        0.2021
    141 C          11.0921    4.5593    0.0000 C.3     1  UNL1        0.1979
    142 C          10.6637   -0.0489    0.0000 C.ar    1  UNL1        0.1743
    143 C           5.3832   -4.0355    0.0000 C.2     1  UNL1        0.3399
    144 C          11.5466    8.0997    0.0000 C.3     1  UNL1        0.1222
    145 C           4.8258   -3.2053    0.0000 C.ar    1  UNL1        0.0661
    146 C          10.1107    4.3672    0.0000 C.2     1  UNL1        0.1645
    147 C           9.5788    7.3414    0.0000 C.2     1  UNL1        0.3405
    148 C          12.2740    1.1243    0.0000 C.ar    1  UNL1        0.1876
    149 C           8.7006    6.8631    0.0000 C.ar    1  UNL1        0.0740
    150 C           7.8473    7.3844    0.0000 C.ar    1  UNL1        0.0458
    151 C          12.0819    2.1057    0.0000 C.ar    1  UNL1        0.1085
    152 C          11.4249    2.8595    0.0000 C.2     1  UNL1        0.3438
    153 C           7.8722    8.3841    0.0000 C.ar    1  UNL1        0.0458
    154 C          13.0549    4.9435    0.0000 C.2     1  UNL1        0.3399
    155 C           8.7503    8.8625    0.0000 C.ar    1  UNL1        0.0740
    156 C           5.2662   -2.3074    0.0000 C.ar    1  UNL1       -0.0023
    157 C           3.8281   -3.2728    0.0000 C.ar    1  UNL1       -0.0023
    158 C           9.6037    8.3411    0.0000 C.2     1  UNL1        0.3401
    159 C          13.2200    0.8000    0.0000 C.ar    1  UNL1        0.2060
    160 C           8.6908    5.8215    0.0000 C.ar    1  UNL1       -0.0017
    161 C           6.9250    6.9004    0.0000 C.ar    1  UNL1        0.1708
    162 C          12.8358    2.7627    0.0000 C.ar    1  UNL1        0.0013
    163 C          14.0362    5.1356    0.0000 C.ar    1  UNL1        0.0661
    164 C           6.9750    8.9134    0.0000 C.ar    1  UNL1        0.1708
    165 C           3.2708   -2.4425    0.0000 C.ar    1  UNL1        0.1628
    166 C           4.7088   -1.4772    0.0000 C.ar    1  UNL1        0.1628
    167 C           8.7923    9.9032    0.0000 C.ar    1  UNL1       -0.0017
    168 C           7.7799    5.3162    0.0000 C.ar    1  UNL1        0.1628
    169 C           6.8911    5.8593    0.0000 C.ar    1  UNL1        0.2012
    170 C          13.9738    1.4570    0.0000 C.ar    1  UNL1        0.2044
    171 C          13.7817    2.4384    0.0000 C.ar    1  UNL1        0.1630
    172 C           3.7111   -1.5447    0.0000 C.ar    1  UNL1        0.2006
    173 C           6.9929    9.9549    0.0000 C.ar    1  UNL1        0.2012
    174 C           7.9076   10.4532    0.0000 C.ar    1  UNL1        0.1628
    175 C          14.3606    6.0816    0.0000 C.ar    1  UNL1       -0.0023
    176 C          14.6933    4.3818    0.0000 C.ar    1  UNL1       -0.0023
    177 C          15.6747    4.5739    0.0000 C.ar    1  UNL1        0.1628
    178 C          15.3419    6.2737    0.0000 C.ar    1  UNL1        0.1628
    179 C          15.9990    5.5198    0.0000 C.ar    1  UNL1        0.2006
    180 H          13.6531   -4.7374    0.0000 H       1  UNL1        0.0801
    181 H          14.5684   -3.6116    0.0000 H       1  UNL1        0.0813
    182 H          14.6486   -2.7755    0.0000 H       1  UNL1        0.0837
    183 H          12.7870   -3.6091    0.0000 H       1  UNL1        0.0670
    184 H          12.6572   -1.9582    0.0000 H       1  UNL1        0.1098
    185 H          11.2260   -3.8244    0.0000 H       1  UNL1        0.0725
    186 H          10.7665   -4.4232    0.0000 H       1  UNL1        0.0725
    187 H          14.4729   -6.5647    0.0000 H       1  UNL1        0.0664
    188 H           9.7824   -6.5647    0.0000 H       1  UNL1        0.0664
    189 H          16.6163   -4.8264    0.0000 H       1  UNL1        0.0663
    190 H          15.1853   -7.2400    0.0000 H       1  UNL1        0.0663
    191 H          13.8720    0.2515    0.0000 H       1  UNL1        0.0665
    192 H          14.7931   -3.0442    0.0000 H       1  UNL1        0.0663
    193 H          16.1867   -0.6089    0.0000 H       1  UNL1        0.0663
    194 H          12.9283  -10.2979    0.0000 H       1  UNL1        0.2923
    195 H          11.3270  -10.2979    0.0000 H       1  UNL1        0.2923
    196 H          16.0048   -7.4612    0.0000 H       1  UNL1        0.2923
    197 H          15.2928   -9.7756    0.0000 H       1  UNL1        0.2924
    198 H          10.6213  -10.2132    0.0000 H       1  UNL1        0.2924
    199 H          10.1951    1.7386    0.0000 H       1  UNL1        0.2924
    200 H          17.1077   -8.7623    0.0000 H       1  UNL1        0.2923
    201 H          18.8743   -5.7825    0.0000 H       1  UNL1        0.2923
    202 H          14.3297    2.0842    0.0000 H       1  UNL1        0.2923
    203 H          12.2369    2.9458    0.0000 H       1  UNL1        0.2924
    204 H          18.3107   -8.0862    0.0000 H       1  UNL1        0.2924
    205 H           9.8390   -2.4398    0.0000 H       1  UNL1        0.0664
    206 H          17.9187   -0.6022    0.0000 H       1  UNL1        0.2923
    207 H          16.7387   -4.5368    0.0000 H       1  UNL1        0.2923
    208 H           7.9464   -5.3507    0.0000 H       1  UNL1        0.0801
    209 H           7.2112   -4.2416    0.0000 H       1  UNL1        0.0815
    210 H          18.4645   -2.9101    0.0000 H       1  UNL1        0.2924
    211 H           9.4905   -5.0160    0.0000 H       1  UNL1        0.0666
    212 H           6.2248   -6.2528    0.0000 H       1  UNL1        0.0851
    213 H           9.8872   -4.9020    0.0000 H       1  UNL1        0.0725
    214 H           9.3601   -3.8437    0.0000 H       1  UNL1        0.0725
    215 H           5.6342   -9.0177    0.0000 H       1  UNL1        0.0665
    216 H           9.4688    1.2193    0.0000 H       1  UNL1        0.2924
    217 H          10.6997    5.9316    0.0000 H       1  UNL1        0.0801
    218 H          11.8238    5.0379    0.0000 H       1  UNL1        0.0815
    219 H           4.9435   -5.4906    0.0000 H       1  UNL1        0.1067
    220 H           7.2003    0.5276    0.0000 H       1  UNL1        0.2923
    221 H           8.7048   -6.1630    0.0000 H       1  UNL1        0.2101
    222 H          12.0293    6.5594    0.0000 H       1  UNL1        0.0666
    223 H          11.2194   -1.3826    0.0000 H       1  UNL1        0.0664
    224 H           8.9197  -10.8024    0.0000 H       1  UNL1        0.2924
    225 H          10.8910    3.9728    0.0000 H       1  UNL1        0.0851
    226 H          12.1492    8.2453    0.0000 H       1  UNL1        0.0725
    227 H          11.4010    8.7024    0.0000 H       1  UNL1        0.0725
    228 H           7.5136  -11.7472    0.0000 H       1  UNL1        0.2924
    229 H           5.3019  -10.7613    0.0000 H       1  UNL1        0.2923
    230 H           7.4761    0.0459    0.0000 H       1  UNL1        0.2923
    231 H           9.9097    3.7807    0.0000 H       1  UNL1        0.1067
    232 H          13.0553    7.7453    0.0000 H       1  UNL1        0.2101
    233 H           9.1890    1.7410    0.0000 H       1  UNL1        0.2924
    234 H           5.8848   -2.2656    0.0000 H       1  UNL1        0.0663
    235 H           3.5551   -3.8294    0.0000 H       1  UNL1        0.0663
    236 H           9.2236    5.5044    0.0000 H       1  UNL1        0.0664
    237 H          12.7166    3.3712    0.0000 H       1  UNL1        0.0665
    238 H           9.3402   10.1935    0.0000 H       1  UNL1        0.0664
    239 H          13.9532    6.5489    0.0000 H       1  UNL1        0.0663
    240 H          14.4922    3.7953    0.0000 H       1  UNL1        0.0663
    241 H          14.4854    0.1652    0.0000 H       1  UNL1        0.2924
    242 H           5.5299    7.1413    0.0000 H       1  UNL1        0.2923
    243 H           5.5697    8.7421    0.0000 H       1  UNL1        0.2923
    244 H           2.0000   -3.0667    0.0000 H       1  UNL1        0.2923
    245 H           4.8037   -0.0646    0.0000 H       1  UNL1        0.2923
    246 H           7.2156    4.0179    0.0000 H       1  UNL1        0.2923
    247 H           5.9933    4.7647    0.0000 H       1  UNL1        0.2924
    248 H          15.2735    2.0185    0.0000 H       1  UNL1        0.2924
    249 H          14.4164    3.7039    0.0000 H       1  UNL1        0.2923
    250 H           2.5352   -0.7563    0.0000 H       1  UNL1        0.2924
    251 H           6.1506   11.0929    0.0000 H       1  UNL1        0.2924
    252 H           8.4820   11.7472    0.0000 H       1  UNL1        0.2923
    253 H          16.9402    3.9392    0.0000 H       1  UNL1        0.2923
    254 H          16.2747    7.3387    0.0000 H       1  UNL1        0.2923
    255 H          17.3877    5.2446    0.0000 H       1  UNL1        0.2924
@<TRIPOS>BOND
     1     1    74    1
     2     1    75    1
     3     2    71    1
     4     2    77    1
     5     3    72    1
     6     3    78    1
     7     4    73    1
     8     4    79    1
     9     5    75    1
    10     5    81    1
    11     6    76    1
    12     6    82    1
    13     7    77    2
    14     8    78    2
    15     9    79    2
    16    10    81    2
    17    11    82    2
    18    12    93    1
    19    12   112    1
    20    13    90    1
    21    13   194    1
    22    14    91    1
    23    14   195    1
    24    15    97    1
    25    15   196    1
    26    16    99    1
    27    16   113    1
    28    17    98    1
    29    17   197    1
    30    18   102    1
    31    18   198    1
    32    19   103    1
    33    19   199    1
    34    20   104    1
    35    20   200    1
    36    21   105    1
    37    21   201    1
    38    22   106    1
    39    22   202    1
    40    23   107    1
    41    23   203    1
    42    24   108    1
    43    24   204    1
    44    25   109    1
    45    25   206    1
    46    26   110    1
    47    26   207    1
    48    27   111    1
    49    27   210    1
    50    28   116    1
    51    28   125    1
    52    29   124    1
    53    29   128    1
    54    30   115    1
    55    30   216    1
    56    31   118    1
    57    31   143    1
    58    32   121    1
    59    32   220    1
    60    33   122    1
    61    33   221    1
    62    34   127    1
    63    34   137    1
    64    35   123    1
    65    35   224    1
    66    36   125    2
    67    37   130    1
    68    37   228    1
    69    38   128    2
    70    39   134    1
    71    39   147    1
    72    40   132    1
    73    40   229    1
    74    41   136    1
    75    41   154    1
    76    42   133    1
    77    42   230    1
    78    43   142    1
    79    43   148    1
    80    44   141    1
    81    44   152    1
    82    45   138    1
    83    45   232    1
    84    46   135    2
    85    47   137    2
    86    48   140    1
    87    48   233    1
    88    49   144    1
    89    49   158    1
    90    50   143    2
    91    51   146    2
    92    52   147    2
    93    53   152    2
    94    54   154    2
    95    55   158    2
    96    56   159    1
    97    56   241    1
    98    57   161    1
    99    57   242    1
   100    58   164    1
   101    58   243    1
   102    59   165    1
   103    59   244    1
   104    60   166    1
   105    60   245    1
   106    61   168    1
   107    61   246    1
   108    62   169    1
   109    62   247    1
   110    63   170    1
   111    63   248    1
   112    64   171    1
   113    64   249    1
   114    65   172    1
   115    65   250    1
   116    66   173    1
   117    66   251    1
   118    67   174    1
   119    67   252    1
   120    68   177    1
   121    68   253    1
   122    69   178    1
   123    69   254    1
   124    70   179    1
   125    70   255    1
   126    71    72    1
   127    71    74    1
   128    71   180    1
   129    72    73    1
   130    72   181    1
   131    73    75    1
   132    73   182    1
   133    74    76    1
   134    74   183    1
   135    75   184    1
   136    76   185    1
   137    76   186    1
   138    77    80    1
   139    78    84    1
   140    79    87    1
   141    80    83   ar
   142    80    89   ar
   143    81    88    1
   144    82    85    1
   145    83    86    1
   146    83    90   ar
   147    84    94   ar
   148    84    95   ar
   149    85    86   ar
   150    85    92   ar
   151    86    91   ar
   152    87    93   ar
   153    87    96   ar
   154    88   100   ar
   155    88   101   ar
   156    89    97   ar
   157    89   187    1
   158    90    98   ar
   159    91   102   ar
   160    92    99   ar
   161    92   188    1
   162    93   103   ar
   163    94   105   ar
   164    94   189    1
   165    95   104   ar
   166    95   190    1
   167    96   106   ar
   168    96   191    1
   169    97    98   ar
   170    99   102   ar
   171   100   110   ar
   172   100   192    1
   173   101   109   ar
   174   101   193    1
   175   103   107   ar
   176   104   108   ar
   177   105   108   ar
   178   106   107   ar
   179   109   111   ar
   180   110   111   ar
   181   112   114   ar
   182   112   115   ar
   183   113   120   ar
   184   113   123   ar
   185   114   117   ar
   186   114   205    1
   187   115   121   ar
   188   116   118    1
   189   116   122    1
   190   116   208    1
   191   117   119   ar
   192   117   125    1
   193   118   124    1
   194   118   209    1
   195   119   121   ar
   196   119   126    1
   197   120   128    1
   198   120   129   ar
   199   122   127    1
   200   122   211    1
   201   123   130   ar
   202   124   135    1
   203   124   212    1
   204   126   131   ar
   205   126   133   ar
   206   127   213    1
   207   127   214    1
   208   129   132   ar
   209   129   215    1
   210   130   132   ar
   211   131   137    1
   212   131   139   ar
   213   133   140   ar
   214   134   136    1
   215   134   138    1
   216   134   217    1
   217   135   219    1
   218   136   141    1
   219   136   218    1
   220   138   144    1
   221   138   222    1
   222   139   142   ar
   223   139   223    1
   224   140   142   ar
   225   141   146    1
   226   141   225    1
   227   143   145    1
   228   144   226    1
   229   144   227    1
   230   145   156   ar
   231   145   157   ar
   232   146   231    1
   233   147   149    1
   234   148   151   ar
   235   148   159   ar
   236   149   150   ar
   237   149   160   ar
   238   150   153    1
   239   150   161   ar
   240   151   152    1
   241   151   162   ar
   242   153   155   ar
   243   153   164   ar
   244   154   163    1
   245   155   158    1
   246   155   167   ar
   247   156   166   ar
   248   156   234    1
   249   157   165   ar
   250   157   235    1
   251   159   170   ar
   252   160   168   ar
   253   160   236    1
   254   161   169   ar
   255   162   171   ar
   256   162   237    1
   257   163   175   ar
   258   163   176   ar
   259   164   173   ar
   260   165   172   ar
   261   166   172   ar
   262   167   174   ar
   263   167   238    1
   264   168   169   ar
   265   170   171   ar
   266   173   174   ar
   267   175   178   ar
   268   175   239    1
   269   176   177   ar
   270   176   240    1
   271   177   179   ar
   272   178   179   ar
