@<TRIPOS>MOLECULE
IMPHY012281
 14 14 0 0 0
SMALL
GASTEIGER

@<TRIPOS>ATOM
      1 O           3.3660   -1.1830    0.0000 O.3     1  UNL1       -0.3642
      2 C           2.8660   -0.3170    0.0000 C.3     1  UNL1        0.1079
      3 C           3.8660   -0.3170    0.0000 C.3     1  UNL1        0.0812
      4 C           2.0000   -0.8170    0.0000 C.3     1  UNL1       -0.0300
      5 C           2.8660    0.6830    0.0000 C.2     1  UNL1       -0.0578
      6 C           2.0000    1.1830    0.0000 C.2     1  UNL1       -0.0999
      7 H           4.4486   -0.5290    0.0000 H       1  UNL1        0.0592
      8 H           3.9737    0.2936    0.0000 H       1  UNL1        0.0592
      9 H           1.6900   -0.2801    0.0000 H       1  UNL1        0.0261
     10 H           1.4631   -1.1270    0.0000 H       1  UNL1        0.0261
     11 H           2.3100   -1.3539    0.0000 H       1  UNL1        0.0261
     12 H           3.4030    0.9930    0.0000 H       1  UNL1        0.0595
     13 H           2.0000    1.8030    0.0000 H       1  UNL1        0.0533
     14 H           1.4631    0.8730    0.0000 H       1  UNL1        0.0533
@<TRIPOS>BOND
     1     1     2    1
     2     1     3    1
     3     2     3    1
     4     2     4    1
     5     2     5    1
     6     3     7    1
     7     3     8    1
     8     4     9    1
     9     4    10    1
    10     4    11    1
    11     5     6    2
    12     5    12    1
    13     6    13    1
    14     6    14    1
