@<TRIPOS>MOLECULE
IMPHY017567
 18 17 0 0 0
SMALL
GASTEIGER

@<TRIPOS>ATOM
      1 O           4.5981    0.7500    0.0000 O.3     1  UNL1       -0.4605
      2 O           3.7320   -0.7500    0.0000 O.2     1  UNL1       -0.2509
      3 C           2.8660    0.7500    0.0000 C.3     1  UNL1        0.0421
      4 C           2.0000    0.2500    0.0000 C.3     1  UNL1       -0.0552
      5 C           3.7320    0.2500    0.0000 C.2     1  UNL1        0.3071
      6 C           5.4641    0.2500    0.0000 C.3     1  UNL1        0.1104
      7 C           6.3301    0.7500    0.0000 C.2     1  UNL1       -0.0541
      8 C           7.1962    0.2500    0.0000 C.2     1  UNL1       -0.0995
      9 H           3.2646    1.2250    0.0000 H       1  UNL1        0.0375
     10 H           2.4675    1.2250    0.0000 H       1  UNL1        0.0375
     11 H           1.6900    0.7869    0.0000 H       1  UNL1        0.0235
     12 H           1.4631   -0.0600    0.0000 H       1  UNL1        0.0235
     13 H           2.3100   -0.2869    0.0000 H       1  UNL1        0.0235
     14 H           5.0656   -0.2249    0.0000 H       1  UNL1        0.0742
     15 H           5.8626   -0.2249    0.0000 H       1  UNL1        0.0742
     16 H           6.3301    1.3700    0.0000 H       1  UNL1        0.0600
     17 H           7.1962   -0.3700    0.0000 H       1  UNL1        0.0533
     18 H           7.7331    0.5600    0.0000 H       1  UNL1        0.0533
@<TRIPOS>BOND
     1     1     5    1
     2     1     6    1
     3     2     5    2
     4     3     4    1
     5     3     5    1
     6     3     9    1
     7     3    10    1
     8     4    11    1
     9     4    12    1
    10     4    13    1
    11     6     7    1
    12     6    14    1
    13     6    15    1
    14     7     8    2
    15     7    16    1
    16     8    17    1
    17     8    18    1
