@<TRIPOS>MOLECULE
IMPHY006452
 34 35 0 0 0
SMALL
GASTEIGER

@<TRIPOS>ATOM
      1 O           2.8660   -4.2500    0.0000 O.3     1  UNL1       -0.4951
      2 O           3.7320    4.2500    0.0000 O.3     1  UNL1       -0.4951
      3 C           2.8660   -1.2500    0.0000 C.ar    1  UNL1       -0.0248
      4 C           3.7320    1.2500    0.0000 C.ar    1  UNL1       -0.0248
      5 C           2.8660   -0.2500    0.0000 C.2     1  UNL1       -0.0540
      6 C           3.7320    0.2500    0.0000 C.2     1  UNL1       -0.0540
      7 C           3.7320   -1.7500    0.0000 C.ar    1  UNL1       -0.0511
      8 C           2.8660    1.7500    0.0000 C.ar    1  UNL1       -0.0511
      9 C           2.0000   -1.7500    0.0000 C.ar    1  UNL1       -0.0511
     10 C           4.5981    1.7500    0.0000 C.ar    1  UNL1       -0.0511
     11 C           2.8660   -3.2500    0.0000 C.ar    1  UNL1        0.1201
     12 C           3.7320    3.2500    0.0000 C.ar    1  UNL1        0.1201
     13 C           3.7320   -2.7500    0.0000 C.ar    1  UNL1       -0.0194
     14 C           2.8660    2.7500    0.0000 C.ar    1  UNL1       -0.0194
     15 C           2.0000   -2.7500    0.0000 C.ar    1  UNL1       -0.0194
     16 C           4.5981    2.7500    0.0000 C.ar    1  UNL1       -0.0194
     17 C           2.0000   -4.7500    0.0000 C.3     1  UNL1        0.0788
     18 C           4.5981    4.7500    0.0000 C.3     1  UNL1        0.0788
     19 H           2.3291    0.0600    0.0000 H       1  UNL1        0.0624
     20 H           4.2690   -0.0600    0.0000 H       1  UNL1        0.0624
     21 H           4.2690   -1.4400    0.0000 H       1  UNL1        0.0625
     22 H           2.3291    1.4400    0.0000 H       1  UNL1        0.0625
     23 H           1.4631   -1.4400    0.0000 H       1  UNL1        0.0625
     24 H           5.1350    1.4400    0.0000 H       1  UNL1        0.0625
     25 H           4.2690   -3.0600    0.0000 H       1  UNL1        0.0654
     26 H           2.3291    3.0600    0.0000 H       1  UNL1        0.0654
     27 H           1.4631   -3.0600    0.0000 H       1  UNL1        0.0654
     28 H           5.1350    3.0600    0.0000 H       1  UNL1        0.0654
     29 H           1.6900   -4.2131    0.0000 H       1  UNL1        0.0660
     30 H           1.4631   -5.0600    0.0000 H       1  UNL1        0.0660
     31 H           2.3100   -5.2869    0.0000 H       1  UNL1        0.0660
     32 H           4.9081    4.2131    0.0000 H       1  UNL1        0.0660
     33 H           5.1350    5.0600    0.0000 H       1  UNL1        0.0660
     34 H           4.2881    5.2869    0.0000 H       1  UNL1        0.0660
@<TRIPOS>BOND
     1     1    11    1
     2     1    17    1
     3     2    12    1
     4     2    18    1
     5     3     5    1
     6     3     7   ar
     7     3     9   ar
     8     4     6    1
     9     4     8   ar
    10     4    10   ar
    11     5     6    2
    12     5    19    1
    13     6    20    1
    14     7    13   ar
    15     7    21    1
    16     8    14   ar
    17     8    22    1
    18     9    15   ar
    19     9    23    1
    20    10    16   ar
    21    10    24    1
    22    11    13   ar
    23    11    15   ar
    24    12    14   ar
    25    12    16   ar
    26    13    25    1
    27    14    26    1
    28    15    27    1
    29    16    28    1
    30    17    29    1
    31    17    30    1
    32    17    31    1
    33    18    32    1
    34    18    33    1
    35    18    34    1
