@<TRIPOS>MOLECULE
IMPHY001726
 30 29 0 0 0
SMALL
GASTEIGER

@<TRIPOS>ATOM
      1 O           4.2690   -0.3450    0.0000 O.3     1  UNL1       -0.3806
      2 O           8.5991   -1.8450    0.0000 O.3     1  UNL1       -0.3949
      3 O           9.4651    0.6550    0.0000 O.3     1  UNL1       -0.4795
      4 OXT         8.5991    2.1550    0.0000 O.2     1  UNL1       -0.2492
      5 O           2.5369    0.6550    0.0000 O.3     1  UNL1       -0.4788
      6 O           3.4030    2.1550    0.0000 O.2     1  UNL1       -0.2481
      7 N           6.8671    1.1550    0.0000 N.3     1  UNL1       -0.3040
      8 CA          7.7331    0.6550    0.0000 C.3     1  UNL1        0.1078
      9 C           6.0010    0.6550    0.0000 C.3     1  UNL1       -0.0005
     10 C           5.1350    1.1550    0.0000 C.3     1  UNL1       -0.0038
     11 C           7.7331   -0.3450    0.0000 C.3     1  UNL1       -0.0039
     12 C           4.2690    0.6550    0.0000 C.3     1  UNL1        0.1525
     13 C           8.5991   -0.8450    0.0000 C.3     1  UNL1        0.0461
     14 C           8.5991    1.1550    0.0000 C.2     1  UNL1        0.3220
     15 C           3.4030    1.1550    0.0000 C.2     1  UNL1        0.3337
     16 HA          7.7331    1.2750    0.0000 H       1  UNL1        0.0577
     17 H           5.6025    0.1801    0.0000 H       1  UNL1        0.0425
     18 H           6.3996    0.1801    0.0000 H       1  UNL1        0.0425
     19 H           5.5335    1.6300    0.0000 H       1  UNL1        0.0308
     20 H           4.7365    1.6300    0.0000 H       1  UNL1        0.0308
     21 H           6.8671    1.7750    0.0000 H       1  UNL1        0.1227
     22 H           7.1225   -0.2373    0.0000 H       1  UNL1        0.0308
     23 H           7.5210   -0.9276    0.0000 H       1  UNL1        0.0308
     24 H           4.8059    0.3450    0.0000 H       1  UNL1        0.0710
     25 H           9.2097   -0.9527    0.0000 H       1  UNL1        0.0558
     26 H           8.8112   -0.2624    0.0000 H       1  UNL1        0.0558
     27 H           3.7320   -0.6550    0.0000 H       1  UNL1        0.2105
     28 H           9.1360   -2.1550    0.0000 H       1  UNL1        0.2094
     29 H          10.0021    0.9650    0.0000 H       1  UNL1        0.2951
     30 H           2.0000    0.9650    0.0000 H       1  UNL1        0.2951
@<TRIPOS>BOND
     1    12     1    1
     2     1    27    1
     3     2    13    1
     4     2    28    1
     5     3    14    1
     6     3    29    1
     7     4    14    2
     8     5    15    1
     9     5    30    1
    10     6    15    2
    11     8     7    1
    12     7     9    1
    13     7    21    1
    14     8    11    1
    15     8    14    1
    16     8    16    1
    17     9    10    1
    18     9    17    1
    19     9    18    1
    20    10    12    1
    21    10    19    1
    22    10    20    1
    23    11    13    1
    24    11    22    1
    25    11    23    1
    26    12    15    1
    27    12    24    1
    28    13    25    1
    29    13    26    1
