@<TRIPOS>MOLECULE
IMPHY016890
 40 42 0 0 0
SMALL
GASTEIGER

@<TRIPOS>ATOM
      1 O           5.8829   -1.5016    0.0000 O.3     1  UNL1       -0.3644
      2 C           5.0166   -1.0012    0.0000 C.3     1  UNL1        0.0951
      3 C           5.8826   -0.5012    0.0000 C.3     1  UNL1        0.0941
      4 C           4.1506   -0.5012    0.0000 C.3     1  UNL1        0.0145
      5 C           3.3797   -1.1075    0.0000 C.3     1  UNL1       -0.0259
      6 C           5.8826    0.4988    0.0000 C.3     1  UNL1       -0.0178
      7 C           4.1506    0.4988    0.0000 C.2     1  UNL1       -0.0643
      8 C           5.0166    0.9988    0.0000 C.3     1  UNL1       -0.0285
      9 C           2.4244   -0.8854    0.0000 C.3     1  UNL1       -0.0470
     10 C           6.7487   -0.0012    0.0000 C.3     1  UNL1       -0.0333
     11 C           3.3797    1.1051    0.0000 C.2     1  UNL1       -0.0730
     12 C           3.1519   -2.0813    0.0000 C.3     1  UNL1       -0.0592
     13 C           3.9990   -1.8927    0.0000 C.3     1  UNL1       -0.0592
     14 C           2.0000   -0.0012    0.0000 C.3     1  UNL1       -0.0489
     15 C           2.4244    0.8830    0.0000 C.3     1  UNL1       -0.0317
     16 C           3.5969    2.0813    0.0000 C.3     1  UNL1       -0.0435
     17 H           4.7065   -1.5381    0.0000 H       1  UNL1        0.0631
     18 H           4.1948   -1.1196    0.0000 H       1  UNL1        0.0377
     19 H           6.4932    0.3911    0.0000 H       1  UNL1        0.0297
     20 H           6.0947    1.0814    0.0000 H       1  UNL1        0.0297
     21 H           5.4151    1.4737    0.0000 H       1  UNL1        0.0311
     22 H           4.6181    1.4737    0.0000 H       1  UNL1        0.0311
     23 H           1.8196   -1.0220    0.0000 H       1  UNL1        0.0271
     24 H           2.4224   -1.5054    0.0000 H       1  UNL1        0.0271
     25 H           7.0587   -0.5381    0.0000 H       1  UNL1        0.0258
     26 H           7.2856    0.3088    0.0000 H       1  UNL1        0.0258
     27 H           6.4387    0.5357    0.0000 H       1  UNL1        0.0258
     28 H           2.5482   -1.9400    0.0000 H       1  UNL1        0.0235
     29 H           3.0107   -2.6850    0.0000 H       1  UNL1        0.0235
     30 H           3.7556   -2.2225    0.0000 H       1  UNL1        0.0235
     31 H           3.5121   -2.2767    0.0000 H       1  UNL1        0.0235
     32 H           4.3829   -2.3795    0.0000 H       1  UNL1        0.0235
     33 H           4.4858   -1.5088    0.0000 H       1  UNL1        0.0235
     34 H           1.5151    0.3851    0.0000 H       1  UNL1        0.0268
     35 H           1.5151   -0.3875    0.0000 H       1  UNL1        0.0268
     36 H           2.4224    1.5030    0.0000 H       1  UNL1        0.0310
     37 H           1.8196    1.0196    0.0000 H       1  UNL1        0.0310
     38 H           4.2021    1.9466    0.0000 H       1  UNL1        0.0274
     39 H           3.7316    2.6864    0.0000 H       1  UNL1        0.0274
     40 H           2.9918    2.2160    0.0000 H       1  UNL1        0.0274
@<TRIPOS>BOND
     1     1     2    1
     2     1     3    1
     3     2     3    1
     4     2     4    1
     5     2    17    1
     6     3     6    1
     7     3    10    1
     8     4     5    1
     9     4     7    1
    10     4    18    1
    11     5     9    1
    12     5    12    1
    13     5    13    1
    14     6     8    1
    15     6    19    1
    16     6    20    1
    17     7     8    1
    18     7    11    2
    19     8    21    1
    20     8    22    1
    21     9    14    1
    22     9    23    1
    23     9    24    1
    24    10    25    1
    25    10    26    1
    26    10    27    1
    27    11    15    1
    28    11    16    1
    29    12    28    1
    30    12    29    1
    31    12    30    1
    32    13    31    1
    33    13    32    1
    34    13    33    1
    35    14    15    1
    36    14    34    1
    37    14    35    1
    38    15    36    1
    39    15    37    1
    40    16    38    1
    41    16    39    1
    42    16    40    1
