@<TRIPOS>MOLECULE
IMPHY014533
 117 125 0 0 0
SMALL
GASTEIGER

@<TRIPOS>ATOM
      1 O           6.8102   -4.6594    0.0000 O.3     1  UNL1       -0.4570
      2 O           8.0777   -2.7047    0.0000 O.3     1  UNL1       -0.3733
      3 O           8.8208   -3.3738    0.0000 O.3     1  UNL1       -0.4658
      4 O           8.6130   -4.3519    0.0000 O.2     1  UNL1       -0.2474
      5 O           8.1801    1.7856    0.0000 O.3     1  UNL1       -0.4947
      6 O           8.0974   -5.8184    0.0000 O.2     1  UNL1       -0.2512
      7 O           6.5287    0.4726    0.0000 O.3     1  UNL1       -0.4670
      8 O           5.2439    0.5176    0.0000 O.2     1  UNL1       -0.2494
      9 O           9.5087    3.3639    0.0000 O.3     1  UNL1       -0.3912
     10 N           4.3838   -2.4307    0.0000 N.3     1  UNL1       -0.2939
     11 N           7.4632   -1.4301    0.0000 N.pl3   1  UNL1       -0.3252
     12 N           6.8864    5.0043    0.0000 N.3     1  UNL1       -0.3013
     13 N           4.6681    1.8492    0.0000 N.ar    1  UNL1       -0.3565
     14 C           5.9235   -1.9304    0.0000 C.3     1  UNL1        0.0369
     15 C           5.2980   -2.6250    0.0000 C.3     1  UNL1        0.0348
     16 C           6.8378   -2.1248    0.0000 C.3     1  UNL1        0.0772
     17 C           5.5869   -3.5140    0.0000 C.3     1  UNL1        0.0453
     18 C           7.1266   -3.0137    0.0000 C.3     1  UNL1        0.2195
     19 C           5.5384   -0.8948    0.0000 C.3     1  UNL1       -0.0272
     20 C           6.5012   -3.7083    0.0000 C.3     1  UNL1        0.1542
     21 C           6.2601   -0.3468    0.0000 C.ar    1  UNL1       -0.0162
     22 C           4.0949   -1.5417    0.0000 C.3     1  UNL1        0.0005
     23 C           5.8959   -4.4650    0.0000 C.3     1  UNL1       -0.0418
     24 C           7.1744   -0.5411    0.0000 C.ar    1  UNL1        0.0372
     25 C           4.9614   -4.2086    0.0000 C.2     1  UNL1       -0.0755
     26 C           3.7583   -3.1253    0.0000 C.3     1  UNL1        0.0175
     27 C           4.0472   -4.0143    0.0000 C.2     1  UNL1       -0.0733
     28 C           7.8698   -3.6828    0.0000 C.2     1  UNL1        0.3446
     29 C           5.9713    0.5422    0.0000 C.ar    1  UNL1       -0.0481
     30 C           8.4143   -1.1211    0.0000 C.3     1  UNL1        0.0011
     31 C           7.7998    0.1535    0.0000 C.ar    1  UNL1        0.0017
     32 C           5.2268   -5.2082    0.0000 C.3     1  UNL1       -0.0643
     33 C           6.5967    1.2368    0.0000 C.ar    1  UNL1        0.0172
     34 C           7.5110    1.0425    0.0000 C.ar    1  UNL1        0.1265
     35 C           6.2877    2.1878    0.0000 C.3     1  UNL1        0.1361
     36 C           7.1192   -5.6104    0.0000 C.2     1  UNL1        0.3043
     37 C           7.2388    2.4969    0.0000 C.3     1  UNL1       -0.0211
     38 C           5.3605    2.5624    0.0000 C.ar    1  UNL1        0.0418
     39 C           7.7687    3.3449    0.0000 C.3     1  UNL1       -0.0002
     40 C           5.9131    1.2607    0.0000 C.2     1  UNL1        0.3235
     41 C           6.4501   -6.3536    0.0000 C.3     1  UNL1        0.0332
     42 C           9.5640   -4.0430    0.0000 C.3     1  UNL1        0.0818
     43 C           8.6440    3.8662    0.0000 C.3     1  UNL1        0.0632
     44 C           7.6295    4.3352    0.0000 C.3     1  UNL1        0.0041
     45 C           4.8910    3.4454    0.0000 C.ar    1  UNL1       -0.0165
     46 C           8.6631    4.8847    0.0000 C.3     1  UNL1       -0.0022
     47 C           7.8080    5.4385    0.0000 C.3     1  UNL1        0.0041
     48 C           5.0990    4.4236    0.0000 C.3     1  UNL1       -0.0126
     49 C           5.8870    5.0392    0.0000 C.3     1  UNL1        0.0030
     50 C           9.1583    1.5777    0.0000 C.3     1  UNL1        0.0788
     51 C           3.9125    3.2702    0.0000 C.ar    1  UNL1        0.0032
     52 C           3.7750    2.2857    0.0000 C.ar    1  UNL1        0.0470
     53 C           9.5460    5.3542    0.0000 C.3     1  UNL1       -0.0495
     54 C           3.1059    3.9195    0.0000 C.ar    1  UNL1       -0.0523
     55 C           2.8214    1.8822    0.0000 C.ar    1  UNL1       -0.0378
     56 C           7.6676    0.6327    0.0000 C.3     1  UNL1        0.0817
     57 C           9.5809    6.3536    0.0000 C.3     1  UNL1       -0.0649
     58 C           2.1432    3.5382    0.0000 C.ar    1  UNL1       -0.0611
     59 C           2.0000    2.5127    0.0000 C.ar    1  UNL1       -0.0598
     60 H           5.0354   -1.8166    0.0000 H       1  UNL1        0.0482
     61 H           7.6692   -2.3015    0.0000 H       1  UNL1        0.0544
     62 H           6.1147   -0.6661    0.0000 H       1  UNL1        0.0287
     63 H           5.2972   -0.3236    0.0000 H       1  UNL1        0.0287
     64 H           7.1076   -3.8372    0.0000 H       1  UNL1        0.0779
     65 H           3.8617   -0.9673    0.0000 H       1  UNL1        0.0427
     66 H           3.5125   -1.7543    0.0000 H       1  UNL1        0.0427
     67 H           6.2776   -4.9536    0.0000 H       1  UNL1        0.0273
     68 H           6.4433   -4.1740    0.0000 H       1  UNL1        0.0273
     69 H           5.1530   -4.7983    0.0000 H       1  UNL1        0.0577
     70 H           3.3766   -2.6368    0.0000 H       1  UNL1        0.0470
     71 H           3.2109   -3.4164    0.0000 H       1  UNL1        0.0470
     72 H           3.6323   -4.4750    0.0000 H       1  UNL1        0.0582
     73 H           5.3648    0.6711    0.0000 H       1  UNL1        0.0625
     74 H           8.4925   -2.2439    0.0000 H       1  UNL1        0.2111
     75 H           8.6059   -1.7108    0.0000 H       1  UNL1        0.0428
     76 H           9.0039   -0.9295    0.0000 H       1  UNL1        0.0428
     77 H           8.2227   -0.5314    0.0000 H       1  UNL1        0.0428
     78 H           8.4063    0.0246    0.0000 H       1  UNL1        0.0673
     79 H           4.7660   -4.7933    0.0000 H       1  UNL1        0.0230
     80 H           4.8119   -5.6690    0.0000 H       1  UNL1        0.0230
     81 H           5.6875   -5.6231    0.0000 H       1  UNL1        0.0230
     82 H           7.2532    1.8770    0.0000 H       1  UNL1        0.0287
     83 H           7.8367    2.3329    0.0000 H       1  UNL1        0.0287
     84 H           8.6001    3.1682    0.0000 H       1  UNL1        0.0339
     85 H           5.9894   -5.9387    0.0000 H       1  UNL1        0.0342
     86 H           6.0352   -6.8144    0.0000 H       1  UNL1        0.0342
     87 H           6.9108   -6.7685    0.0000 H       1  UNL1        0.0342
     88 H           9.1491   -4.5037    0.0000 H       1  UNL1        0.0661
     89 H          10.0247   -4.4578    0.0000 H       1  UNL1        0.0661
     90 H           9.9788   -3.5822    0.0000 H       1  UNL1        0.0661
     91 H           9.1842    4.1704    0.0000 H       1  UNL1        0.0599
     92 H           8.2424    4.2418    0.0000 H       1  UNL1        0.0430
     93 H           7.8948    4.8956    0.0000 H       1  UNL1        0.0430
     94 H           8.6897    5.5042    0.0000 H       1  UNL1        0.0338
     95 H           4.3572    1.3128    0.0000 H       1  UNL1        0.1656
     96 H           8.2351    5.8879    0.0000 H       1  UNL1        0.0430
     97 H           7.4449    5.9411    0.0000 H       1  UNL1        0.0430
     98 H           4.8734    5.0011    0.0000 H       1  UNL1        0.0326
     99 H           4.4810    4.3731    0.0000 H       1  UNL1        0.0326
    100 H           6.0854    5.6266    0.0000 H       1  UNL1        0.0430
    101 H           5.3812    5.3978    0.0000 H       1  UNL1        0.0430
    102 H           9.0294    0.9712    0.0000 H       1  UNL1        0.0660
    103 H           9.7647    1.4488    0.0000 H       1  UNL1        0.0660
    104 H           9.2872    2.1841    0.0000 H       1  UNL1        0.0660
    105 H           9.7376    4.7646    0.0000 H       1  UNL1        0.0266
    106 H          10.1600    5.4405    0.0000 H       1  UNL1        0.0266
    107 H          10.0464    3.6725    0.0000 H       1  UNL1        0.2098
    108 H           3.1988    4.5325    0.0000 H       1  UNL1        0.0624
    109 H           2.7427    1.2672    0.0000 H       1  UNL1        0.0638
    110 H           7.7538    0.0187    0.0000 H       1  UNL1        0.0661
    111 H           8.2815    0.7190    0.0000 H       1  UNL1        0.0661
    112 H           7.5813    1.2467    0.0000 H       1  UNL1        0.0661
    113 H          10.2005    6.3320    0.0000 H       1  UNL1        0.0230
    114 H           9.6026    6.9732    0.0000 H       1  UNL1        0.0230
    115 H           8.9613    6.3752    0.0000 H       1  UNL1        0.0230
    116 H           1.6558    3.9214    0.0000 H       1  UNL1        0.0618
    117 H           1.4262    2.2778    0.0000 H       1  UNL1        0.0618
@<TRIPOS>BOND
     1    20     1    1
     2     1    36    1
     3    18     2    1
     4     2    74    1
     5     3    28    1
     6     3    42    1
     7     4    28    2
     8     5    34    1
     9     5    50    1
    10     6    36    2
    11     7    40    1
    12     7    56    1
    13     8    40    2
    14     9    43    1
    15     9   107    1
    16    10    15    1
    17    10    22    1
    18    10    26    1
    19    11    16    1
    20    11    24    1
    21    11    30    1
    22    12    44    1
    23    12    47    1
    24    12    49    1
    25    13    38   ar
    26    13    52   ar
    27    13    95    1
    28    14    15    1
    29    14    16    1
    30    14    19    1
    31    14    21    1
    32    15    17    1
    33    15    60    1
    34    16    18    1
    35    16    61    1
    36    17    20    1
    37    17    23    1
    38    17    25    1
    39    18    20    1
    40    18    28    1
    41    19    22    1
    42    19    62    1
    43    19    63    1
    44    20    64    1
    45    21    24   ar
    46    21    29   ar
    47    22    65    1
    48    22    66    1
    49    23    32    1
    50    23    67    1
    51    23    68    1
    52    24    31   ar
    53    25    27    2
    54    25    69    1
    55    26    27    1
    56    26    70    1
    57    26    71    1
    58    27    72    1
    59    29    33   ar
    60    29    73    1
    61    30    75    1
    62    30    76    1
    63    30    77    1
    64    31    34   ar
    65    31    78    1
    66    32    79    1
    67    32    80    1
    68    32    81    1
    69    33    34   ar
    70    33    35    1
    71    35    37    1
    72    35    38    1
    73    35    40    1
    74    36    41    1
    75    37    39    1
    76    37    82    1
    77    37    83    1
    78    38    45   ar
    79    39    43    1
    80    39    44    1
    81    39    84    1
    82    41    85    1
    83    41    86    1
    84    41    87    1
    85    42    88    1
    86    42    89    1
    87    42    90    1
    88    43    46    1
    89    43    91    1
    90    44    92    1
    91    44    93    1
    92    45    48    1
    93    45    51   ar
    94    46    47    1
    95    46    53    1
    96    46    94    1
    97    47    96    1
    98    47    97    1
    99    48    49    1
   100    48    98    1
   101    48    99    1
   102    49   100    1
   103    49   101    1
   104    50   102    1
   105    50   103    1
   106    50   104    1
   107    51    52   ar
   108    51    54   ar
   109    52    55   ar
   110    53    57    1
   111    53   105    1
   112    53   106    1
   113    54    58   ar
   114    54   108    1
   115    55    59   ar
   116    55   109    1
   117    56   110    1
   118    56   111    1
   119    56   112    1
   120    57   113    1
   121    57   114    1
   122    57   115    1
   123    58    59   ar
   124    58   116    1
   125    59   117    1
