@<TRIPOS>MOLECULE
IMPHY014973
 26 27 0 0 0
SMALL
GASTEIGER

@<TRIPOS>ATOM
      1 C           5.7890   -0.5326    0.0000 C.3     1  UNL1       -0.0253
      2 C           4.3901   -0.5414    0.0000 C.3     1  UNL1       -0.0314
      3 C           4.6489    0.4245    0.0000 C.3     1  UNL1       -0.0145
      4 C           3.9123    1.4071    0.0000 C.3     1  UNL1       -0.0424
      5 C           3.1691   -1.4071    0.0000 C.3     1  UNL1       -0.0311
      6 C           2.6157    0.1134    0.0000 C.2     1  UNL1       -0.0729
      7 C           6.6550   -0.0326    0.0000 C.3     1  UNL1       -0.0590
      8 C           6.2890   -1.3986    0.0000 C.3     1  UNL1       -0.0590
      9 C           2.3400   -0.8479    0.0000 C.2     1  UNL1       -0.0845
     10 C           2.0000    0.9014    0.0000 C.3     1  UNL1       -0.0435
     11 H           4.1701   -1.3625    0.0000 H       1  UNL1        0.0309
     12 H           5.0992    0.8507    0.0000 H       1  UNL1        0.0351
     13 H           4.2301    1.9395    0.0000 H       1  UNL1        0.0274
     14 H           3.2992    1.4991    0.0000 H       1  UNL1        0.0274
     15 H           2.7632   -1.8758    0.0000 H       1  UNL1        0.0310
     16 H           3.5857   -1.8662    0.0000 H       1  UNL1        0.0310
     17 H           6.9650   -0.5696    0.0000 H       1  UNL1        0.0235
     18 H           7.1920    0.2774    0.0000 H       1  UNL1        0.0235
     19 H           6.3450    0.5043    0.0000 H       1  UNL1        0.0235
     20 H           5.7521   -1.7086    0.0000 H       1  UNL1        0.0235
     21 H           6.5990   -1.9356    0.0000 H       1  UNL1        0.0235
     22 H           6.8260   -1.0886    0.0000 H       1  UNL1        0.0235
     23 H           1.7574   -1.0600    0.0000 H       1  UNL1        0.0572
     24 H           2.4886    1.2831    0.0000 H       1  UNL1        0.0274
     25 H           1.6183    1.3899    0.0000 H       1  UNL1        0.0274
     26 H           1.5114    0.5197    0.0000 H       1  UNL1        0.0274
@<TRIPOS>BOND
     1     1     2    1
     2     1     3    1
     3     1     7    1
     4     1     8    1
     5     2     4    1
     6     2     5    1
     7     2    11    1
     8     3     4    1
     9     3     6    1
    10     3    12    1
    11     4    13    1
    12     4    14    1
    13     5     9    1
    14     5    15    1
    15     5    16    1
    16     6     9    2
    17     6    10    1
    18     7    17    1
    19     7    18    1
    20     7    19    1
    21     8    20    1
    22     8    21    1
    23     8    22    1
    24     9    23    1
    25    10    24    1
    26    10    25    1
    27    10    26    1
