@<TRIPOS>MOLECULE
IMPHY009842
 37 39 0 0 0
SMALL
GASTEIGER

@<TRIPOS>ATOM
      1 O           4.5741   -0.9220    0.0000 O.3     1  UNL1       -0.3627
      2 C           3.8001   -0.2888    0.0000 C.3     1  UNL1        0.0940
      3 C           3.8126    0.7112    0.0000 C.3     1  UNL1        0.0009
      4 C           5.9968    0.1839    0.0000 C.3     1  UNL1       -0.0094
      5 C           4.8215    0.3054    0.0000 C.3     1  UNL1       -0.0142
      6 C           5.5518   -0.7116    0.0000 C.3     1  UNL1        0.0680
      7 C           4.6021    1.3248    0.0000 C.3     1  UNL1       -0.0443
      8 C           5.5742    1.0902    0.0000 C.3     1  UNL1       -0.0469
      9 C           2.9254    1.2569    0.0000 C.3     1  UNL1       -0.0413
     10 C           2.8996   -0.8122    0.0000 C.2     1  UNL1       -0.0560
     11 C           3.8251    1.7111    0.0000 C.3     1  UNL1       -0.0566
     12 C           2.0130    0.7544    0.0000 C.3     1  UNL1       -0.0341
     13 C           5.5842   -1.7111    0.0000 C.3     1  UNL1       -0.0358
     14 C           6.5123   -0.9896    0.0000 C.3     1  UNL1       -0.0358
     15 C           2.0000   -0.2871    0.0000 C.2     1  UNL1       -0.0852
     16 H           6.8278    0.3627    0.0000 H       1  UNL1        0.0329
     17 H           5.0724    0.8724    0.0000 H       1  UNL1        0.0300
     18 H           4.3596    0.7190    0.0000 H       1  UNL1        0.0300
     19 H           4.8781    1.8800    0.0000 H       1  UNL1        0.0272
     20 H           4.1223    1.7174    0.0000 H       1  UNL1        0.0272
     21 H           6.1803    1.2206    0.0000 H       1  UNL1        0.0269
     22 H           5.5820    1.7102    0.0000 H       1  UNL1        0.0269
     23 H           3.3358    1.7216    0.0000 H       1  UNL1        0.0274
     24 H           2.5378    1.7408    0.0000 H       1  UNL1        0.0274
     25 H           2.8990   -1.4322    0.0000 H       1  UNL1        0.0597
     26 H           4.4450    1.7034    0.0000 H       1  UNL1        0.0236
     27 H           3.8328    2.3310    0.0000 H       1  UNL1        0.0236
     28 H           3.2051    1.7188    0.0000 H       1  UNL1        0.0236
     29 H           1.8112    1.3407    0.0000 H       1  UNL1        0.0308
     30 H           1.4008    0.6559    0.0000 H       1  UNL1        0.0308
     31 H           4.9645   -1.7312    0.0000 H       1  UNL1        0.0257
     32 H           5.6043   -2.3308    0.0000 H       1  UNL1        0.0257
     33 H           6.2038   -1.6910    0.0000 H       1  UNL1        0.0257
     34 H           6.3399   -1.5852    0.0000 H       1  UNL1        0.0257
     35 H           7.1079   -1.1620    0.0000 H       1  UNL1        0.0257
     36 H           6.6847   -0.3941    0.0000 H       1  UNL1        0.0257
     37 H           1.4604   -0.5925    0.0000 H       1  UNL1        0.0570
@<TRIPOS>BOND
     1     1     2    1
     2     1     6    1
     3     2     3    1
     4     2     5    1
     5     2    10    1
     6     3     7    1
     7     3     9    1
     8     3    11    1
     9     4     5    1
    10     4     6    1
    11     4     8    1
    12     4    16    1
    13     5    17    1
    14     5    18    1
    15     6    13    1
    16     6    14    1
    17     7     8    1
    18     7    19    1
    19     7    20    1
    20     8    21    1
    21     8    22    1
    22     9    12    1
    23     9    23    1
    24     9    24    1
    25    10    15    2
    26    10    25    1
    27    11    26    1
    28    11    27    1
    29    11    28    1
    30    12    15    1
    31    12    29    1
    32    12    30    1
    33    13    31    1
    34    13    32    1
    35    13    33    1
    36    14    34    1
    37    14    35    1
    38    14    36    1
    39    15    37    1
