@<TRIPOS>MOLECULE
IMPHY003870
 89 94 0 0 0
SMALL
GASTEIGER

@<TRIPOS>ATOM
      1 O           7.7662    2.2596    0.0000 O.3     1  UNL1       -0.3877
      2 O           6.0010   -2.9440    0.0000 O.3     1  UNL1       -0.3445
      3 O           4.9038    6.4440    0.0000 O.3     1  UNL1       -0.4571
      4 O           4.2690   -2.9440    0.0000 O.3     1  UNL1       -0.3421
      5 O           3.1835    5.9791    0.0000 O.2     1  UNL1       -0.2456
      6 O           6.0010   -4.9440    0.0000 O.3     1  UNL1       -0.4537
      7 O           4.2690   -5.9440    0.0000 O.3     1  UNL1       -0.3733
      8 O           2.5369   -4.9440    0.0000 O.3     1  UNL1       -0.3865
      9 O           5.1350   -6.4440    0.0000 O.2     1  UNL1       -0.2512
     10 C           6.8982    2.7562    0.0000 C.3     1  UNL1        0.0751
     11 C           6.9021    1.7562    0.0000 C.3     1  UNL1       -0.0083
     12 C           6.0380    1.2529    0.0000 C.3     1  UNL1       -0.0299
     13 C           6.0303    3.2529    0.0000 C.3     1  UNL1        0.0036
     14 C           6.0260    0.2113    0.0000 C.3     1  UNL1       -0.0259
     15 C           6.9260   -0.3129    0.0000 C.3     1  UNL1       -0.0330
     16 C           5.1701    1.7496    0.0000 C.3     1  UNL1       -0.0488
     17 C           5.1662    2.7496    0.0000 C.3     1  UNL1       -0.0442
     18 C           6.2358    4.2255    0.0000 C.3     1  UNL1       -0.0081
     19 C           7.8140    1.2529    0.0000 C.3     1  UNL1       -0.0470
     20 C           7.6327    3.4262    0.0000 C.3     1  UNL1       -0.0226
     21 C           7.8261    0.2113    0.0000 C.3     1  UNL1       -0.0493
     22 C           7.2241    4.3324    0.0000 C.3     1  UNL1       -0.0432
     23 C           5.0761   -0.3129    0.0000 C.3     1  UNL1       -0.0448
     24 C           6.9386   -1.3979    0.0000 C.3     1  UNL1       -0.0232
     25 C           5.1624    3.7496    0.0000 C.3     1  UNL1       -0.0564
     26 C           5.1619    0.7147    0.0000 C.3     1  UNL1       -0.0590
     27 C           5.0635   -1.3979    0.0000 C.3     1  UNL1       -0.0260
     28 C           6.0010   -1.9440    0.0000 C.3     1  UNL1        0.0621
     29 C           5.5650    4.9672    0.0000 C.2     1  UNL1       -0.0222
     30 C           5.7709    5.9458    0.0000 C.3     1  UNL1        0.1147
     31 C           4.5708    4.8606    0.0000 C.2     1  UNL1        0.0252
     32 C           5.1350   -3.4440    0.0000 C.3     1  UNL1        0.1994
     33 C           4.1621    5.7733    0.0000 C.2     1  UNL1        0.3323
     34 C           5.1350   -4.4440    0.0000 C.3     1  UNL1        0.1818
     35 C           4.2690   -4.9440    0.0000 C.3     1  UNL1        0.1281
     36 C           3.4030   -3.4440    0.0000 C.3     1  UNL1        0.0874
     37 C           3.4030   -4.4440    0.0000 C.3     1  UNL1        0.1108
     38 C           2.5369   -2.9440    0.0000 C.3     1  UNL1       -0.0361
     39 C           6.0010   -5.9440    0.0000 C.2     1  UNL1        0.3044
     40 C           3.4030   -6.4440    0.0000 C.3     1  UNL1        0.0371
     41 C           6.8671   -6.4440    0.0000 C.3     1  UNL1        0.0332
     42 H           7.6333    2.1897    0.0000 H       1  UNL1        0.0331
     43 H           6.7725    0.8251    0.0000 H       1  UNL1        0.0310
     44 H           7.6654   -0.7323    0.0000 H       1  UNL1        0.0307
     45 H           4.5591    1.8549    0.0000 H       1  UNL1        0.0268
     46 H           4.9602    1.1661    0.0000 H       1  UNL1        0.0268
     47 H           4.9519    3.3314    0.0000 H       1  UNL1        0.0272
     48 H           4.5560    2.6396    0.0000 H       1  UNL1        0.0272
     49 H           6.4565    4.8049    0.0000 H       1  UNL1        0.0353
     50 H           8.4261    1.1539    0.0000 H       1  UNL1        0.0269
     51 H           8.0163    1.8390    0.0000 H       1  UNL1        0.0269
     52 H           8.0000    2.9267    0.0000 H       1  UNL1        0.0293
     53 H           8.1680    3.7390    0.0000 H       1  UNL1        0.0293
     54 H           8.0419   -0.3699    0.0000 H       1  UNL1        0.0268
     55 H           8.4357    0.3245    0.0000 H       1  UNL1        0.0268
     56 H           7.8129    4.5264    0.0000 H       1  UNL1        0.0272
     57 H           7.0930    4.9384    0.0000 H       1  UNL1        0.0272
     58 H           4.8738    0.2731    0.0000 H       1  UNL1        0.0271
     59 H           4.4640   -0.4120    0.0000 H       1  UNL1        0.0271
     60 H           7.1544   -1.9791    0.0000 H       1  UNL1        0.0293
     61 H           7.5482   -1.2847    0.0000 H       1  UNL1        0.0293
     62 H           5.4703    4.2877    0.0000 H       1  UNL1        0.0236
     63 H           4.6242    4.0575    0.0000 H       1  UNL1        0.0236
     64 H           4.8544    3.2114    0.0000 H       1  UNL1        0.0236
     65 H           5.4739    1.2504    0.0000 H       1  UNL1        0.0235
     66 H           4.6261    1.0268    0.0000 H       1  UNL1        0.0235
     67 H           4.8498    0.1789    0.0000 H       1  UNL1        0.0235
     68 H           4.4539   -1.2847    0.0000 H       1  UNL1        0.0290
     69 H           4.8477   -1.9791    0.0000 H       1  UNL1        0.0290
     70 H           6.5386   -2.2529    0.0000 H       1  UNL1        0.0597
     71 H           8.3019    2.5716    0.0000 H       1  UNL1        0.2102
     72 H           6.3609    5.7555    0.0000 H       1  UNL1        0.0746
     73 H           6.0218    6.5127    0.0000 H       1  UNL1        0.0746
     74 H           4.2619    4.3230    0.0000 H       1  UNL1        0.0689
     75 H           5.6720   -3.7540    0.0000 H       1  UNL1        0.0949
     76 H           5.1350   -5.0640    0.0000 H       1  UNL1        0.0813
     77 H           3.7320   -5.2540    0.0000 H       1  UNL1        0.0662
     78 H           3.4030   -2.8240    0.0000 H       1  UNL1        0.0621
     79 H           2.8660   -4.1340    0.0000 H       1  UNL1        0.0646
     80 H           2.8469   -2.4070    0.0000 H       1  UNL1        0.0255
     81 H           2.0000   -2.6340    0.0000 H       1  UNL1        0.0255
     82 H           2.2269   -3.4809    0.0000 H       1  UNL1        0.0255
     83 H           2.0000   -4.6340    0.0000 H       1  UNL1        0.2100
     84 H           3.0930   -5.9070    0.0000 H       1  UNL1        0.0524
     85 H           2.8660   -6.7540    0.0000 H       1  UNL1        0.0524
     86 H           3.7130   -6.9809    0.0000 H       1  UNL1        0.0524
     87 H           6.5571   -6.9809    0.0000 H       1  UNL1        0.0342
     88 H           7.4040   -6.7540    0.0000 H       1  UNL1        0.0342
     89 H           7.1771   -5.9070    0.0000 H       1  UNL1        0.0342
@<TRIPOS>BOND
     1    10     1    1
     2     1    71    1
     3    28     2    1
     4    32     2    1
     5     3    30    1
     6     3    33    1
     7     4    32    1
     8     4    36    1
     9     5    33    2
    10    34     6    1
    11     6    39    1
    12    35     7    1
    13     7    40    1
    14    37     8    1
    15     8    83    1
    16     9    39    2
    17    10    11    1
    18    10    13    1
    19    10    20    1
    20    11    12    1
    21    11    19    1
    22    11    42    1
    23    12    14    1
    24    12    16    1
    25    12    43    1
    26    13    17    1
    27    13    18    1
    28    13    25    1
    29    14    15    1
    30    14    23    1
    31    14    26    1
    32    15    21    1
    33    15    24    1
    34    15    44    1
    35    16    17    1
    36    16    45    1
    37    16    46    1
    38    17    47    1
    39    17    48    1
    40    18    22    1
    41    18    29    1
    42    18    49    1
    43    19    21    1
    44    19    50    1
    45    19    51    1
    46    20    22    1
    47    20    52    1
    48    20    53    1
    49    21    54    1
    50    21    55    1
    51    22    56    1
    52    22    57    1
    53    23    27    1
    54    23    58    1
    55    23    59    1
    56    24    28    1
    57    24    60    1
    58    24    61    1
    59    25    62    1
    60    25    63    1
    61    25    64    1
    62    26    65    1
    63    26    66    1
    64    26    67    1
    65    27    28    1
    66    27    68    1
    67    27    69    1
    68    28    70    1
    69    29    30    1
    70    29    31    2
    71    30    72    1
    72    30    73    1
    73    31    33    1
    74    31    74    1
    75    32    34    1
    76    32    75    1
    77    34    35    1
    78    34    76    1
    79    35    37    1
    80    35    77    1
    81    36    37    1
    82    36    38    1
    83    36    78    1
    84    37    79    1
    85    38    80    1
    86    38    81    1
    87    38    82    1
    88    39    41    1
    89    40    84    1
    90    40    85    1
    91    40    86    1
    92    41    87    1
    93    41    88    1
    94    41    89    1
