@<TRIPOS>MOLECULE
IMPHY000544
 60 64 0 0 0
SMALL
GASTEIGER

@<TRIPOS>ATOM
      1 O           9.2610   -0.7130    0.0000 O.3     1  UNL1       -0.5063
      2 O           6.0010    3.5950    0.0000 O.3     1  UNL1       -0.5064
      3 O           8.7179   -1.5787    0.0000 O.3     1  UNL1       -0.5064
      4 O          10.3972    2.1192    0.0000 O.3     1  UNL1       -0.5066
      5 O           4.2690   -2.4050    0.0000 O.3     1  UNL1       -0.5066
      6 O           2.5369    0.5950    0.0000 O.3     1  UNL1       -0.5066
      7 O           2.5369    3.5950    0.0000 O.3     1  UNL1       -0.5066
      8 O           6.8671   -3.9050    0.0000 O.3     1  UNL1       -0.5066
      9 C           6.0010    0.5950    0.0000 C.3     1  UNL1        0.0026
     10 C           6.0010    1.5950    0.0000 C.3     1  UNL1       -0.0008
     11 C           6.8671    0.0950    0.0000 C.3     1  UNL1        0.0237
     12 C           6.8671    2.0950    0.0000 C.3     1  UNL1       -0.0196
     13 C           7.7331    0.5950    0.0000 C.ar    1  UNL1        0.0056
     14 C           7.7331    1.5950    0.0000 C.ar    1  UNL1       -0.0361
     15 C           5.1350    0.0950    0.0000 C.ar    1  UNL1       -0.0359
     16 C           5.1350    2.0950    0.0000 C.ar    1  UNL1       -0.0017
     17 C           6.8671   -0.9050    0.0000 C.ar    1  UNL1        0.0024
     18 C           8.6270    0.0603    0.0000 C.ar    1  UNL1        0.1243
     19 C           8.6270    2.1297    0.0000 C.ar    1  UNL1       -0.0165
     20 C           4.2690    0.5950    0.0000 C.ar    1  UNL1       -0.0165
     21 C           5.1350   -0.9050    0.0000 C.ar    1  UNL1       -0.0165
     22 C           5.1350    3.0950    0.0000 C.ar    1  UNL1        0.1238
     23 C           4.2690    1.5950    0.0000 C.ar    1  UNL1       -0.0514
     24 C           7.7331   -1.4050    0.0000 C.ar    1  UNL1        0.1241
     25 C           6.0010   -1.4050    0.0000 C.ar    1  UNL1       -0.0511
     26 C           9.5331    0.5742    0.0000 C.ar    1  UNL1        0.0216
     27 C           9.5331    1.6158    0.0000 C.ar    1  UNL1        0.1206
     28 C           4.2690   -1.4050    0.0000 C.ar    1  UNL1        0.1206
     29 C           3.4030    0.0950    0.0000 C.ar    1  UNL1        0.1206
     30 C           4.2690    3.5950    0.0000 C.ar    1  UNL1        0.0216
     31 C           3.4030    2.0950    0.0000 C.ar    1  UNL1       -0.0197
     32 C           7.7331   -2.4050    0.0000 C.ar    1  UNL1        0.0216
     33 C           6.0010   -2.4050    0.0000 C.ar    1  UNL1       -0.0197
     34 C           3.4030   -0.9050    0.0000 C.ar    1  UNL1        0.0213
     35 C           3.4030    3.0950    0.0000 C.ar    1  UNL1        0.1203
     36 C           6.8671   -2.9050    0.0000 C.ar    1  UNL1        0.1203
     37 H           5.4641    0.9050    0.0000 H       1  UNL1        0.0364
     38 H           6.0010    2.4450    0.0000 H       1  UNL1        0.0359
     39 H           6.1309   -0.3300    0.0000 H       1  UNL1        0.0406
     40 H           7.2656    2.5700    0.0000 H       1  UNL1        0.0319
     41 H           6.4685    2.5700    0.0000 H       1  UNL1        0.0319
     42 H           8.6199    2.7496    0.0000 H       1  UNL1        0.0657
     43 H           4.2690    1.2150    0.0000 H       1  UNL1        0.0657
     44 H           5.6720   -1.2150    0.0000 H       1  UNL1        0.0657
     45 H           4.2690    0.9750    0.0000 H       1  UNL1        0.0623
     46 H           5.4641   -1.0950    0.0000 H       1  UNL1        0.0623
     47 H          10.0688    0.2621    0.0000 H       1  UNL1        0.0691
     48 H           4.2690    4.2150    0.0000 H       1  UNL1        0.0691
     49 H           2.8660    1.7850    0.0000 H       1  UNL1        0.0654
     50 H           8.2700   -2.7150    0.0000 H       1  UNL1        0.0691
     51 H           5.4641   -2.7150    0.0000 H       1  UNL1        0.0654
     52 H           9.8728   -0.6123    0.0000 H       1  UNL1        0.2921
     53 H           2.8660   -1.2150    0.0000 H       1  UNL1        0.0691
     54 H           6.0010    4.2150    0.0000 H       1  UNL1        0.2921
     55 H           8.9300   -2.1613    0.0000 H       1  UNL1        0.2921
     56 H          10.9353    1.8112    0.0000 H       1  UNL1        0.2921
     57 H           3.7320   -2.7150    0.0000 H       1  UNL1        0.2921
     58 H           2.0000    0.2850    0.0000 H       1  UNL1        0.2921
     59 H           2.5369    4.2150    0.0000 H       1  UNL1        0.2921
     60 H           6.3301   -4.2150    0.0000 H       1  UNL1        0.2921
@<TRIPOS>BOND
     1     1    18    1
     2     1    52    1
     3     2    22    1
     4     2    54    1
     5     3    24    1
     6     3    55    1
     7     4    27    1
     8     4    56    1
     9     5    28    1
    10     5    57    1
    11     6    29    1
    12     6    58    1
    13     7    35    1
    14     7    59    1
    15     8    36    1
    16     8    60    1
    17     9    10    1
    18     9    11    1
    19     9    15    1
    20     9    37    1
    21    10    12    1
    22    10    16    1
    23    10    38    1
    24    11    13    1
    25    11    17    1
    26    11    39    1
    27    12    14    1
    28    12    40    1
    29    12    41    1
    30    13    14   ar
    31    13    18   ar
    32    14    19   ar
    33    15    20   ar
    34    15    21   ar
    35    16    22   ar
    36    16    23   ar
    37    17    24   ar
    38    17    25   ar
    39    18    26   ar
    40    19    27   ar
    41    19    42    1
    42    20    29   ar
    43    20    43    1
    44    21    28   ar
    45    21    44    1
    46    22    30   ar
    47    23    31   ar
    48    23    45    1
    49    24    32   ar
    50    25    33   ar
    51    25    46    1
    52    26    27   ar
    53    26    47    1
    54    28    34   ar
    55    29    34   ar
    56    30    35   ar
    57    30    48    1
    58    31    35   ar
    59    31    49    1
    60    32    36   ar
    61    32    50    1
    62    33    36   ar
    63    33    51    1
    64    34    53    1
