@<TRIPOS>MOLECULE
IMPHY016933
 42 44 0 0 0
SMALL
GASTEIGER

@<TRIPOS>ATOM
      1 O           3.7759    1.2846    0.0000 O.3     1  UNL1       -0.3909
      2 C           5.5240   -1.7569    0.0000 C.3     1  UNL1       -0.0211
      3 C           5.5080    1.2846    0.0000 C.3     1  UNL1       -0.0002
      4 C           5.5080   -0.7154    0.0000 C.3     1  UNL1       -0.0296
      5 C           4.6419   -0.2154    0.0000 C.3     1  UNL1       -0.0080
      6 C           4.6419    0.7846    0.0000 C.3     1  UNL1        0.0644
      7 C           6.3740    0.7846    0.0000 C.3     1  UNL1       -0.0445
      8 C           6.3740   -0.2154    0.0000 C.3     1  UNL1       -0.0488
      9 C           3.7319   -0.7222    0.0000 C.3     1  UNL1       -0.0332
     10 C           4.6260   -2.2846    0.0000 C.3     1  UNL1       -0.0465
     11 C           3.7239   -1.7638    0.0000 C.3     1  UNL1       -0.0491
     12 C           6.3958   -2.2468    0.0000 C.3     1  UNL1       -0.0587
     13 C           5.5080    2.2846    0.0000 C.3     1  UNL1       -0.0567
     14 C           2.8718   -0.2122    0.0000 C.3     1  UNL1       -0.0435
     15 C           2.0000   -0.7022    0.0000 C.3     1  UNL1       -0.0624
     16 C           2.8833    0.7877    0.0000 C.3     1  UNL1       -0.0624
     17 H           6.2441   -1.1404    0.0000 H       1  UNL1        0.0310
     18 H           3.9058    0.2096    0.0000 H       1  UNL1        0.0331
     19 H           4.6419    1.4046    0.0000 H       1  UNL1        0.0602
     20 H           6.9846    0.6770    0.0000 H       1  UNL1        0.0272
     21 H           6.5860    1.3672    0.0000 H       1  UNL1        0.0272
     22 H           6.5860   -0.7980    0.0000 H       1  UNL1        0.0268
     23 H           6.9846   -0.1077    0.0000 H       1  UNL1        0.0268
     24 H           3.7403   -0.1023    0.0000 H       1  UNL1        0.0307
     25 H           4.2287   -2.7606    0.0000 H       1  UNL1        0.0271
     26 H           5.0270   -2.7575    0.0000 H       1  UNL1        0.0271
     27 H           3.1139   -1.6530    0.0000 H       1  UNL1        0.0268
     28 H           3.5104   -2.3459    0.0000 H       1  UNL1        0.0268
     29 H           6.0920   -2.7873    0.0000 H       1  UNL1        0.0235
     30 H           6.9362   -2.5506    0.0000 H       1  UNL1        0.0235
     31 H           6.6995   -1.7063    0.0000 H       1  UNL1        0.0235
     32 H           6.1280    2.2846    0.0000 H       1  UNL1        0.0236
     33 H           5.5080    2.9046    0.0000 H       1  UNL1        0.0236
     34 H           4.8880    2.2846    0.0000 H       1  UNL1        0.0236
     35 H           2.8646   -0.8322    0.0000 H       1  UNL1        0.0298
     36 H           3.7759    1.9046    0.0000 H       1  UNL1        0.2098
     37 H           1.6962   -0.1617    0.0000 H       1  UNL1        0.0232
     38 H           1.4595   -1.0060    0.0000 H       1  UNL1        0.0232
     39 H           2.3038   -1.2427    0.0000 H       1  UNL1        0.0232
     40 H           3.5033    0.7805    0.0000 H       1  UNL1        0.0232
     41 H           2.8905    1.4077    0.0000 H       1  UNL1        0.0232
     42 H           2.2634    0.7949    0.0000 H       1  UNL1        0.0232
@<TRIPOS>BOND
     1     6     1    1
     2     1    36    1
     3     2     3    1
     4     2     4    1
     5     2    10    1
     6     2    12    1
     7     3     6    1
     8     3     7    1
     9     3    13    1
    10     4     5    1
    11     4     8    1
    12     4    17    1
    13     5     6    1
    14     5     9    1
    15     5    18    1
    16     6    19    1
    17     7     8    1
    18     7    20    1
    19     7    21    1
    20     8    22    1
    21     8    23    1
    22     9    11    1
    23     9    14    1
    24     9    24    1
    25    10    11    1
    26    10    25    1
    27    10    26    1
    28    11    27    1
    29    11    28    1
    30    12    29    1
    31    12    30    1
    32    12    31    1
    33    13    32    1
    34    13    33    1
    35    13    34    1
    36    14    15    1
    37    14    16    1
    38    14    35    1
    39    15    37    1
    40    15    38    1
    41    15    39    1
    42    16    40    1
    43    16    41    1
    44    16    42    1
