@<TRIPOS>MOLECULE
IMPHY015393
 48 48 0 0 0
SMALL
GASTEIGER

@<TRIPOS>ATOM
      1 C           3.7320   -1.5000    0.0000 C.3     1  UNL1       -0.0159
      2 C           4.5981   -1.0000    0.0000 C.3     1  UNL1       -0.0462
      3 C           4.5981    0.0000    0.0000 C.3     1  UNL1       -0.0525
      4 C           2.8660   -1.0000    0.0000 C.3     1  UNL1       -0.0465
      5 C           5.4641    0.5000    0.0000 C.3     1  UNL1       -0.0530
      6 C           5.4641    1.5000    0.0000 C.3     1  UNL1       -0.0531
      7 C           3.7320   -2.5000    0.0000 C.ar    1  UNL1       -0.0443
      8 C           6.3301    2.0000    0.0000 C.3     1  UNL1       -0.0531
      9 C           2.8660    0.0000    0.0000 C.3     1  UNL1       -0.0554
     10 C           6.3301    3.0000    0.0000 C.3     1  UNL1       -0.0533
     11 C           2.8660   -3.0000    0.0000 C.ar    1  UNL1       -0.0583
     12 C           4.5981   -3.0000    0.0000 C.ar    1  UNL1       -0.0583
     13 C           7.1962    3.5000    0.0000 C.3     1  UNL1       -0.0559
     14 C           2.0000    0.5000    0.0000 C.3     1  UNL1       -0.0653
     15 C           2.8660   -4.0000    0.0000 C.ar    1  UNL1       -0.0615
     16 C           4.5981   -4.0000    0.0000 C.ar    1  UNL1       -0.0615
     17 C           7.1962    4.5000    0.0000 C.3     1  UNL1       -0.0653
     18 C           3.7320   -4.5000    0.0000 C.ar    1  UNL1       -0.0617
     19 H           3.7320   -0.8800    0.0000 H       1  UNL1        0.0349
     20 H           4.8101   -1.5826    0.0000 H       1  UNL1        0.0271
     21 H           5.2087   -0.8923    0.0000 H       1  UNL1        0.0271
     22 H           4.3860    0.5826    0.0000 H       1  UNL1        0.0265
     23 H           3.9875   -0.1077    0.0000 H       1  UNL1        0.0265
     24 H           2.2554   -0.8923    0.0000 H       1  UNL1        0.0271
     25 H           2.6540   -1.5826    0.0000 H       1  UNL1        0.0271
     26 H           5.6762   -0.0826    0.0000 H       1  UNL1        0.0265
     27 H           6.0747    0.6077    0.0000 H       1  UNL1        0.0265
     28 H           5.2520    2.0826    0.0000 H       1  UNL1        0.0265
     29 H           4.8535    1.3923    0.0000 H       1  UNL1        0.0265
     30 H           6.5422    1.4174    0.0000 H       1  UNL1        0.0265
     31 H           6.9407    2.1077    0.0000 H       1  UNL1        0.0265
     32 H           3.4766   -0.1077    0.0000 H       1  UNL1        0.0263
     33 H           3.0781    0.5826    0.0000 H       1  UNL1        0.0263
     34 H           6.1181    3.5826    0.0000 H       1  UNL1        0.0265
     35 H           5.7196    2.8923    0.0000 H       1  UNL1        0.0265
     36 H           2.3291   -2.6900    0.0000 H       1  UNL1        0.0620
     37 H           5.1350   -2.6900    0.0000 H       1  UNL1        0.0620
     38 H           7.4082    2.9174    0.0000 H       1  UNL1        0.0263
     39 H           7.8067    3.6077    0.0000 H       1  UNL1        0.0263
     40 H           2.3100    1.0369    0.0000 H       1  UNL1        0.0230
     41 H           1.4631    0.8100    0.0000 H       1  UNL1        0.0230
     42 H           1.6900   -0.0369    0.0000 H       1  UNL1        0.0230
     43 H           2.3291   -4.3100    0.0000 H       1  UNL1        0.0618
     44 H           5.1350   -4.3100    0.0000 H       1  UNL1        0.0618
     45 H           7.8162    4.5000    0.0000 H       1  UNL1        0.0230
     46 H           7.1962    5.1200    0.0000 H       1  UNL1        0.0230
     47 H           6.5762    4.5000    0.0000 H       1  UNL1        0.0230
     48 H           3.7320   -5.1200    0.0000 H       1  UNL1        0.0618
@<TRIPOS>BOND
     1     1     2    1
     2     1     4    1
     3     1     7    1
     4     1    19    1
     5     2     3    1
     6     2    20    1
     7     2    21    1
     8     3     5    1
     9     3    22    1
    10     3    23    1
    11     4     9    1
    12     4    24    1
    13     4    25    1
    14     5     6    1
    15     5    26    1
    16     5    27    1
    17     6     8    1
    18     6    28    1
    19     6    29    1
    20     7    11   ar
    21     7    12   ar
    22     8    10    1
    23     8    30    1
    24     8    31    1
    25     9    14    1
    26     9    32    1
    27     9    33    1
    28    10    13    1
    29    10    34    1
    30    10    35    1
    31    11    15   ar
    32    11    36    1
    33    12    16   ar
    34    12    37    1
    35    13    17    1
    36    13    38    1
    37    13    39    1
    38    14    40    1
    39    14    41    1
    40    14    42    1
    41    15    18   ar
    42    15    43    1
    43    16    18   ar
    44    16    44    1
    45    17    45    1
    46    17    46    1
    47    17    47    1
    48    18    48    1
