@<TRIPOS>MOLECULE
IMPHY006600
 27 29 0 0 0
SMALL
GASTEIGER

@<TRIPOS>ATOM
      1 O           5.2619   -1.2196    0.0000 O.3     1  UNL1       -0.4217
      2 O           4.9889   -2.9748    0.0000 O.2     1  UNL1       -0.2445
      3 C           3.7320   -0.7196    0.0000 C.ar    1  UNL1        0.0314
      4 C           3.7320   -1.7196    0.0000 C.ar    1  UNL1        0.0700
      5 C           4.6783   -0.4148    0.0000 C.2     1  UNL1        0.1404
      6 C           4.9889    0.5357    0.0000 C.2     1  UNL1       -0.0115
      7 C           2.8660   -0.2196    0.0000 C.ar    1  UNL1       -0.0503
      8 C           4.6783   -2.0243    0.0000 C.2     1  UNL1        0.3451
      9 C           2.8660   -2.2196    0.0000 C.ar    1  UNL1       -0.0471
     10 C           4.3211    1.2800    0.0000 C.ar    1  UNL1       -0.0215
     11 C           2.0000   -0.7196    0.0000 C.ar    1  UNL1       -0.0610
     12 C           2.0000   -1.7196    0.0000 C.ar    1  UNL1       -0.0609
     13 C           3.3426    1.0738    0.0000 C.ar    1  UNL1       -0.0545
     14 C           4.6318    2.2305    0.0000 C.ar    1  UNL1       -0.0545
     15 C           2.6747    1.8181    0.0000 C.ar    1  UNL1       -0.0612
     16 C           3.9639    2.9748    0.0000 C.ar    1  UNL1       -0.0612
     17 C           2.9854    2.7686    0.0000 C.ar    1  UNL1       -0.0617
     18 H           5.5956    0.6635    0.0000 H       1  UNL1        0.0660
     19 H           2.8660    0.4004    0.0000 H       1  UNL1        0.0625
     20 H           2.8660   -2.8396    0.0000 H       1  UNL1        0.0626
     21 H           1.4631   -0.4096    0.0000 H       1  UNL1        0.0618
     22 H           1.4631   -2.0296    0.0000 H       1  UNL1        0.0618
     23 H           3.1500    0.4845    0.0000 H       1  UNL1        0.0623
     24 H           5.2384    2.3584    0.0000 H       1  UNL1        0.0623
     25 H           2.0681    1.6902    0.0000 H       1  UNL1        0.0618
     26 H           4.1565    3.5641    0.0000 H       1  UNL1        0.0618
     27 H           2.5713    3.2301    0.0000 H       1  UNL1        0.0618
@<TRIPOS>BOND
     1     1     5    1
     2     1     8    1
     3     2     8    2
     4     3     4   ar
     5     3     5    1
     6     3     7   ar
     7     4     8    1
     8     4     9   ar
     9     5     6    2
    10     6    10    1
    11     6    18    1
    12     7    11   ar
    13     7    19    1
    14     9    12   ar
    15     9    20    1
    16    10    13   ar
    17    10    14   ar
    18    11    12   ar
    19    11    21    1
    20    12    22    1
    21    13    15   ar
    22    13    23    1
    23    14    16   ar
    24    14    24    1
    25    15    17   ar
    26    15    25    1
    27    16    17   ar
    28    16    26    1
    29    17    27    1
