@<TRIPOS>MOLECULE
IMPHY010886
 45 47 0 0 0
SMALL
GASTEIGER

@<TRIPOS>ATOM
      1 O           7.2806   -0.1762    0.0000 O.3     1  UNL1       -0.3871
      2 O           3.7230   -1.1177    0.0000 O.3     1  UNL1       -0.4564
      3 O           4.8930   -2.7210    0.0000 O.2     1  UNL1       -0.2966
      4 O           7.8718    1.5429    0.0000 O.3     1  UNL1       -0.4644
      5 O           2.0000   -0.6856    0.0000 O.2     1  UNL1       -0.2453
      6 O           9.5269    1.0324    0.0000 O.2     1  UNL1       -0.2512
      7 C           5.4786   -1.0440    0.0000 C.3     1  UNL1        0.0924
      8 C           6.3796   -0.6101    0.0000 C.3     1  UNL1        0.0878
      9 C           4.5777   -0.6101    0.0000 C.3     1  UNL1        0.1250
     10 C           6.6021    0.3648    0.0000 C.3     1  UNL1        0.0232
     11 C           7.0647   -1.3304    0.0000 C.3     1  UNL1       -0.0159
     12 C           4.3551    0.3648    0.0000 C.3     1  UNL1        0.0285
     13 C           5.6146   -2.0287    0.0000 C.2     1  UNL1        0.1456
     14 C           5.9786    1.1467    0.0000 C.3     1  UNL1       -0.0438
     15 C           6.5929   -2.2054    0.0000 C.3     1  UNL1        0.0092
     16 C           4.9786    1.1467    0.0000 C.3     1  UNL1       -0.0421
     17 C           4.5777   -1.4779    0.0000 C.3     1  UNL1       -0.0467
     18 C           7.5770    0.5874    0.0000 C.3     1  UNL1        0.0979
     19 C           3.3648    0.4514    0.0000 C.2     1  UNL1        0.0361
     20 C           2.9749   -0.4630    0.0000 C.2     1  UNL1        0.3353
     21 C           2.8504    1.3089    0.0000 C.2     1  UNL1       -0.0883
     22 C           8.8467    1.7654    0.0000 C.2     1  UNL1        0.3040
     23 C           9.1415    2.7210    0.0000 C.3     1  UNL1        0.0332
     24 H           5.2422   -0.0801    0.0000 H       1  UNL1        0.0751
     25 H           6.8069    0.9500    0.0000 H       1  UNL1        0.0362
     26 H           7.5765   -1.6804    0.0000 H       1  UNL1        0.0297
     27 H           7.4666   -0.8582    0.0000 H       1  UNL1        0.0297
     28 H           4.0200    1.1460    0.0000 H       1  UNL1        0.0387
     29 H           6.5372    1.4157    0.0000 H       1  UNL1        0.0270
     30 H           5.8407    1.7511    0.0000 H       1  UNL1        0.0270
     31 H           6.4192   -2.8005    0.0000 H       1  UNL1        0.0343
     32 H           7.1665   -2.4407    0.0000 H       1  UNL1        0.0343
     33 H           5.1166    1.7511    0.0000 H       1  UNL1        0.0272
     34 H           4.4200    1.4157    0.0000 H       1  UNL1        0.0272
     35 H           4.3086   -0.9193    0.0000 H       1  UNL1        0.0241
     36 H           4.0191   -1.7469    0.0000 H       1  UNL1        0.0241
     37 H           4.8467   -2.0365    0.0000 H       1  UNL1        0.0241
     38 H           7.6080   -0.0319    0.0000 H       1  UNL1        0.0701
     39 H           8.1922    0.5103    0.0000 H       1  UNL1        0.0701
     40 H           7.7928   -0.5255    0.0000 H       1  UNL1        0.2102
     41 H           3.1514    1.8510    0.0000 H       1  UNL1        0.0540
     42 H           2.2305    1.2986    0.0000 H       1  UNL1        0.0540
     43 H           9.7339    2.5383    0.0000 H       1  UNL1        0.0342
     44 H           9.3242    3.3135    0.0000 H       1  UNL1        0.0342
     45 H           8.5490    2.9038    0.0000 H       1  UNL1        0.0342
@<TRIPOS>BOND
     1     8     1    1
     2     1    40    1
     3     2     9    1
     4     2    20    1
     5     3    13    2
     6     4    18    1
     7     4    22    1
     8     5    20    2
     9     6    22    2
    10     7     8    1
    11     7     9    1
    12     7    13    1
    13     7    17    1
    14     8    10    1
    15     8    11    1
    16     9    12    1
    17     9    24    1
    18    10    14    1
    19    10    18    1
    20    10    25    1
    21    11    15    1
    22    11    26    1
    23    11    27    1
    24    12    16    1
    25    12    19    1
    26    12    28    1
    27    13    15    1
    28    14    16    1
    29    14    29    1
    30    14    30    1
    31    15    31    1
    32    15    32    1
    33    16    33    1
    34    16    34    1
    35    17    35    1
    36    17    36    1
    37    17    37    1
    38    18    38    1
    39    18    39    1
    40    19    20    1
    41    19    21    2
    42    21    41    1
    43    21    42    1
    44    22    23    1
    45    23    43    1
    46    23    44    1
    47    23    45    1
