@<TRIPOS>MOLECULE
IMPHY001521
 94 98 0 0 0
SMALL
GASTEIGER

@<TRIPOS>ATOM
      1 O           4.9912   -5.0105    0.0000 O.3     1  UNL1       -0.3625
      2 O           4.1908   -3.0231    0.0000 O.3     1  UNL1       -0.3808
      3 O           3.7320   -2.4820    0.0000 O.3     1  UNL1       -0.4547
      4 O           8.3452   -2.4820    0.0000 O.3     1  UNL1       -0.4606
      5 O           4.4076   -0.8510    0.0000 O.3     1  UNL1       -0.4570
      6 O           4.9585    0.2271    0.0000 O.3     1  UNL1       -0.4607
      7 O           5.3894   -5.4956    0.0000 O.2     1  UNL1       -0.2942
      8 O           8.4662    0.7027    0.0000 O.3     1  UNL1       -0.4537
      9 O           2.8660   -3.9820    0.0000 O.2     1  UNL1       -0.2512
     10 O           8.3452   -4.2140    0.0000 O.2     1  UNL1       -0.2512
     11 O           2.7346   -1.2992    0.0000 O.2     1  UNL1       -0.2512
     12 O           5.6028    1.8349    0.0000 O.2     1  UNL1       -0.2512
     13 O           7.4172    2.0808    0.0000 O.2     1  UNL1       -0.2456
     14 C           6.0386   -3.7885    0.0000 C.3     1  UNL1        0.0334
     15 C           5.1147   -3.4058    0.0000 C.3     1  UNL1        0.1492
     16 C           6.9625   -3.4058    0.0000 C.3     1  UNL1        0.0138
     17 C           4.4711   -4.1634    0.0000 C.3     1  UNL1        0.1567
     18 C           6.0386   -1.1754    0.0000 C.3     1  UNL1        0.0556
     19 C           4.7320   -2.4820    0.0000 C.3     1  UNL1        0.1725
     20 C           6.9625   -1.5581    0.0000 C.3     1  UNL1        0.0329
     21 C           7.3452   -2.4820    0.0000 C.3     1  UNL1        0.1142
     22 C           5.1147   -1.5581    0.0000 C.3     1  UNL1        0.1519
     23 C           5.9580   -4.7793    0.0000 C.3     1  UNL1        0.0577
     24 C           6.3662   -4.2056    0.0000 C.3     1  UNL1        0.0157
     25 C           5.4117   -4.4958    0.0000 C.2     1  UNL1        0.1680
     26 C           6.9625   -4.1712    0.0000 C.3     1  UNL1       -0.0542
     27 C           5.8868   -0.1449    0.0000 C.3     1  UNL1        0.1162
     28 C           7.7986   -0.9368    0.0000 C.2     1  UNL1       -0.0292
     29 C           3.5056   -4.4238    0.0000 C.3     1  UNL1       -0.0259
     30 C           5.1147   -0.7927    0.0000 C.3     1  UNL1       -0.0520
     31 C           6.7082    0.4956    0.0000 C.3     1  UNL1        0.0262
     32 C           7.6706    0.0970    0.0000 C.3     1  UNL1        0.1280
     33 C           8.7180   -1.3301    0.0000 C.2     1  UNL1       -0.0956
     34 C           2.8660   -2.9820    0.0000 C.2     1  UNL1        0.3044
     35 C           8.8452   -3.3480    0.0000 C.2     1  UNL1        0.3042
     36 C           3.4417   -0.5921    0.0000 C.2     1  UNL1        0.3043
     37 C           4.8165    1.2170    0.0000 C.2     1  UNL1        0.3042
     38 C           2.0000   -2.4820    0.0000 C.3     1  UNL1        0.0332
     39 C           9.8452   -3.3480    0.0000 C.3     1  UNL1        0.0332
     40 C           8.3395    1.6946    0.0000 C.2     1  UNL1        0.3325
     41 C           3.1829    0.3738    0.0000 C.3     1  UNL1        0.0332
     42 C           3.8883    1.5889    0.0000 C.3     1  UNL1        0.0332
     43 C           9.1352    2.3003    0.0000 C.2     1  UNL1        0.0231
     44 C           9.0085    3.2922    0.0000 C.2     1  UNL1       -0.0478
     45 C           9.8042    3.8979    0.0000 C.ar    1  UNL1       -0.0248
     46 C          10.7266    3.5117    0.0000 C.ar    1  UNL1       -0.0546
     47 C           9.6775    4.8899    0.0000 C.ar    1  UNL1       -0.0546
     48 C          11.5223    4.1174    0.0000 C.ar    1  UNL1       -0.0612
     49 C          10.4732    5.4956    0.0000 C.ar    1  UNL1       -0.0612
     50 C          11.3956    5.1093    0.0000 C.ar    1  UNL1       -0.0617
     51 H           7.7478   -3.0805    0.0000 H       1  UNL1        0.0348
     52 H           4.3876   -1.9664    0.0000 H       1  UNL1        0.0802
     53 H           7.7478   -1.8834    0.0000 H       1  UNL1        0.0390
     54 H           7.6896   -2.9975    0.0000 H       1  UNL1        0.0743
     55 H           5.2357   -0.9500    0.0000 H       1  UNL1        0.0779
     56 H           6.0381   -5.3941    0.0000 H       1  UNL1        0.0567
     57 H           6.5779   -4.7643    0.0000 H       1  UNL1        0.0567
     58 H           6.3558   -4.8255    0.0000 H       1  UNL1        0.0347
     59 H           6.9530   -4.4058    0.0000 H       1  UNL1        0.0347
     60 H           6.7252   -4.7440    0.0000 H       1  UNL1        0.0237
     61 H           7.5353   -4.4085    0.0000 H       1  UNL1        0.0237
     62 H           7.1998   -3.5984    0.0000 H       1  UNL1        0.0237
     63 H           5.7999    0.4690    0.0000 H       1  UNL1        0.0742
     64 H           3.3442   -3.8252    0.0000 H       1  UNL1        0.0263
     65 H           2.9070   -4.5852    0.0000 H       1  UNL1        0.0263
     66 H           3.6670   -5.0224    0.0000 H       1  UNL1        0.0263
     67 H           5.3520   -0.2199    0.0000 H       1  UNL1        0.0238
     68 H           4.5419   -0.5554    0.0000 H       1  UNL1        0.0238
     69 H           4.8775   -1.3655    0.0000 H       1  UNL1        0.0238
     70 H           3.6990   -3.4006    0.0000 H       1  UNL1        0.2105
     71 H           7.0400    1.0193    0.0000 H       1  UNL1        0.0340
     72 H           6.2490    0.9121    0.0000 H       1  UNL1        0.0340
     73 H           8.2420   -0.1436    0.0000 H       1  UNL1        0.0783
     74 H           8.7918   -1.9457    0.0000 H       1  UNL1        0.0536
     75 H           9.2142   -0.9584    0.0000 H       1  UNL1        0.0536
     76 H           2.3100   -1.9450    0.0000 H       1  UNL1        0.0342
     77 H           1.4631   -2.1720    0.0000 H       1  UNL1        0.0342
     78 H           1.6900   -3.0189    0.0000 H       1  UNL1        0.0342
     79 H           9.8452   -3.9680    0.0000 H       1  UNL1        0.0342
     80 H          10.4652   -3.3480    0.0000 H       1  UNL1        0.0342
     81 H           9.8452   -2.7280    0.0000 H       1  UNL1        0.0342
     82 H           3.7818    0.5343    0.0000 H       1  UNL1        0.0342
     83 H           3.0224    0.9727    0.0000 H       1  UNL1        0.0342
     84 H           2.5840    0.2133    0.0000 H       1  UNL1        0.0342
     85 H           4.1189    2.1644    0.0000 H       1  UNL1        0.0342
     86 H           3.3128    1.8196    0.0000 H       1  UNL1        0.0342
     87 H           3.6577    1.0134    0.0000 H       1  UNL1        0.0342
     88 H           9.7071    2.0608    0.0000 H       1  UNL1        0.0689
     89 H           8.4366    3.5317    0.0000 H       1  UNL1        0.0626
     90 H          10.8052    2.8967    0.0000 H       1  UNL1        0.0623
     91 H           9.1056    5.1293    0.0000 H       1  UNL1        0.0623
     92 H          12.0942    3.8779    0.0000 H       1  UNL1        0.0618
     93 H          10.3947    6.1106    0.0000 H       1  UNL1        0.0618
     94 H          11.8890    5.4849    0.0000 H       1  UNL1        0.0618
@<TRIPOS>BOND
     1     1    17    1
     2     1    23    1
     3    15     2    1
     4     2    70    1
     5    19     3    1
     6     3    34    1
     7    21     4    1
     8     4    35    1
     9    22     5    1
    10     5    36    1
    11    27     6    1
    12     6    37    1
    13     7    25    2
    14    32     8    1
    15     8    40    1
    16     9    34    2
    17    10    35    2
    18    11    36    2
    19    12    37    2
    20    13    40    2
    21    14    15    1
    22    14    16    1
    23    14    23    1
    24    14    26    1
    25    15    17    1
    26    15    19    1
    27    16    21    1
    28    16    24    1
    29    16    51    1
    30    17    25    1
    31    17    29    1
    32    18    20    1
    33    18    22    1
    34    18    27    1
    35    18    30    1
    36    19    22    1
    37    19    52    1
    38    20    21    1
    39    20    28    1
    40    20    53    1
    41    21    54    1
    42    22    55    1
    43    23    56    1
    44    23    57    1
    45    24    25    1
    46    24    58    1
    47    24    59    1
    48    26    60    1
    49    26    61    1
    50    26    62    1
    51    27    31    1
    52    27    63    1
    53    28    32    1
    54    28    33    2
    55    29    64    1
    56    29    65    1
    57    29    66    1
    58    30    67    1
    59    30    68    1
    60    30    69    1
    61    31    32    1
    62    31    71    1
    63    31    72    1
    64    32    73    1
    65    33    74    1
    66    33    75    1
    67    34    38    1
    68    35    39    1
    69    36    41    1
    70    37    42    1
    71    38    76    1
    72    38    77    1
    73    38    78    1
    74    39    79    1
    75    39    80    1
    76    39    81    1
    77    40    43    1
    78    41    82    1
    79    41    83    1
    80    41    84    1
    81    42    85    1
    82    42    86    1
    83    42    87    1
    84    43    44    2
    85    43    88    1
    86    44    45    1
    87    44    89    1
    88    45    46   ar
    89    45    47   ar
    90    46    48   ar
    91    46    90    1
    92    47    49   ar
    93    47    91    1
    94    48    50   ar
    95    48    92    1
    96    49    50   ar
    97    49    93    1
    98    50    94    1
