@<TRIPOS>MOLECULE
IMPHY006881
 74 78 0 0 0
SMALL
GASTEIGER

@<TRIPOS>ATOM
      1 O           6.7975    0.9405    0.0000 O.3     1  UNL1       -0.3699
      2 O           7.4252   -1.9063    0.0000 O.3     1  UNL1       -0.4581
      3 O           4.7789    1.6441    0.0000 O.3     1  UNL1       -0.3888
      4 O           6.5109    2.6441    0.0000 O.3     1  UNL1       -0.3864
      5 O           9.1387    0.1796    0.0000 O.3     1  UNL1       -0.4467
      6 O           3.8273    1.2011    0.0000 O.3     1  UNL1       -0.3834
      7 O           9.1868   -1.8589    0.0000 O.2     1  UNL1       -0.2466
      8 O           2.0000    0.1834    0.0000 O.2     1  UNL1       -0.2899
      9 O          10.0455   -1.2961    0.0000 O.2     1  UNL1       -0.2463
     10 O          11.7221    0.7506    0.0000 O.3     1  UNL1       -0.4471
     11 O          10.8154    2.2263    0.0000 O.2     1  UNL1       -0.2511
     12 C           6.5109   -0.3559    0.0000 C.3     1  UNL1        0.0463
     13 C           5.6449    0.1441    0.0000 C.3     1  UNL1        0.0079
     14 C           7.3770    0.1441    0.0000 C.3     1  UNL1        0.0495
     15 C           4.7349   -0.3628    0.0000 C.3     1  UNL1        0.0137
     16 C           7.3770    1.1441    0.0000 C.3     1  UNL1        0.1023
     17 C           6.5270   -1.3974    0.0000 C.3     1  UNL1        0.1123
     18 C           5.6449    1.1441    0.0000 C.3     1  UNL1        0.0879
     19 C           6.3975    0.2477    0.0000 C.3     1  UNL1        0.0583
     20 C           4.7269   -1.4044    0.0000 C.3     1  UNL1       -0.0079
     21 C           6.5109    1.6441    0.0000 C.3     1  UNL1        0.1103
     22 C           5.6290   -1.9252    0.0000 C.3     1  UNL1       -0.0079
     23 C           8.2867   -0.3439    0.0000 C.3     1  UNL1        0.2052
     24 C           3.8081    0.2013    0.0000 C.3     1  UNL1        0.1232
     25 C           4.4001    0.5795    0.0000 C.3     1  UNL1       -0.0559
     26 C           7.8770    2.0101    0.0000 C.3     1  UNL1       -0.0329
     27 C           3.7914   -1.9541    0.0000 C.2     1  UNL1       -0.0654
     28 C           8.3110   -1.3760    0.0000 C.2     1  UNL1        0.3491
     29 C           2.8602   -0.3266    0.0000 C.2     1  UNL1        0.1848
     30 C           2.8518   -1.4116    0.0000 C.2     1  UNL1       -0.0173
     31 C           3.7953   -2.9541    0.0000 C.3     1  UNL1       -0.0431
     32 C          10.0181   -0.2965    0.0000 C.2     1  UNL1        0.3520
     33 C          10.8701    0.2271    0.0000 C.3     1  UNL1        0.2059
     34 C          11.3937   -0.6249    0.0000 C.3     1  UNL1       -0.0053
     35 C          10.3466    1.0791    0.0000 C.3     1  UNL1       -0.0142
     36 C          12.3933   -0.5975    0.0000 C.3     1  UNL1       -0.0611
     37 C          11.6947    1.7502    0.0000 C.2     1  UNL1        0.3050
     38 C          12.5468    2.2738    0.0000 C.3     1  UNL1        0.0333
     39 H           4.9088    0.5691    0.0000 H       1  UNL1        0.0340
     40 H           7.8020   -0.5920    0.0000 H       1  UNL1        0.0378
     41 H           6.5337   -2.2474    0.0000 H       1  UNL1        0.0740
     42 H           5.6449    1.7641    0.0000 H       1  UNL1        0.0623
     43 H           5.9704    0.6971    0.0000 H       1  UNL1        0.0567
     44 H           5.8456   -0.0347    0.0000 H       1  UNL1        0.0567
     45 H           4.7302   -2.2544    0.0000 H       1  UNL1        0.0353
     46 H           7.0479    1.9541    0.0000 H       1  UNL1        0.0648
     47 H           5.2316   -2.4012    0.0000 H       1  UNL1        0.0307
     48 H           6.0299   -2.3981    0.0000 H       1  UNL1        0.0307
     49 H           8.8314   -0.6402    0.0000 H       1  UNL1        0.0857
     50 H           3.2766    0.5206    0.0000 H       1  UNL1        0.0682
     51 H           4.9844    0.7871    0.0000 H       1  UNL1        0.0236
     52 H           4.1926    1.1638    0.0000 H       1  UNL1        0.0236
     53 H           3.8159    0.3720    0.0000 H       1  UNL1        0.0236
     54 H           8.4139    1.7001    0.0000 H       1  UNL1        0.0258
     55 H           8.1870    2.5470    0.0000 H       1  UNL1        0.0258
     56 H           7.3400    2.3201    0.0000 H       1  UNL1        0.0258
     57 H           4.7789    2.2641    0.0000 H       1  UNL1        0.2099
     58 H           7.0479    2.9541    0.0000 H       1  UNL1        0.2100
     59 H           2.3137   -1.7195    0.0000 H       1  UNL1        0.0653
     60 H           3.2965    1.5214    0.0000 H       1  UNL1        0.2104
     61 H           3.1753   -2.9565    0.0000 H       1  UNL1        0.0275
     62 H           3.7977   -3.5741    0.0000 H       1  UNL1        0.0275
     63 H           4.4153   -2.9517    0.0000 H       1  UNL1        0.0275
     64 H          10.8171   -0.8529    0.0000 H       1  UNL1        0.0306
     65 H          11.5180   -1.2323    0.0000 H       1  UNL1        0.0306
     66 H          10.8748    1.4037    0.0000 H       1  UNL1        0.0274
     67 H          10.0220    1.6073    0.0000 H       1  UNL1        0.0274
     68 H           9.8184    0.7545    0.0000 H       1  UNL1        0.0274
     69 H          12.4103   -1.2173    0.0000 H       1  UNL1        0.0231
     70 H          13.0131   -0.5806    0.0000 H       1  UNL1        0.0231
     71 H          12.3763    0.0222    0.0000 H       1  UNL1        0.0231
     72 H          12.8713    1.7455    0.0000 H       1  UNL1        0.0342
     73 H          13.0750    2.5984    0.0000 H       1  UNL1        0.0342
     74 H          12.2222    2.8020    0.0000 H       1  UNL1        0.0342
@<TRIPOS>BOND
     1     1    16    1
     2     1    19    1
     3     2    17    1
     4     2    28    1
     5    18     3    1
     6     3    57    1
     7    21     4    1
     8     4    58    1
     9    23     5    1
    10     5    32    1
    11    24     6    1
    12     6    60    1
    13     7    28    2
    14     8    29    2
    15     9    32    2
    16    33    10    1
    17    10    37    1
    18    11    37    2
    19    12    13    1
    20    12    14    1
    21    12    17    1
    22    12    19    1
    23    13    15    1
    24    13    18    1
    25    13    39    1
    26    14    16    1
    27    14    23    1
    28    14    40    1
    29    15    20    1
    30    15    24    1
    31    15    25    1
    32    16    21    1
    33    16    26    1
    34    17    22    1
    35    17    41    1
    36    18    21    1
    37    18    42    1
    38    19    43    1
    39    19    44    1
    40    20    22    1
    41    20    27    1
    42    20    45    1
    43    21    46    1
    44    22    47    1
    45    22    48    1
    46    23    28    1
    47    23    49    1
    48    24    29    1
    49    24    50    1
    50    25    51    1
    51    25    52    1
    52    25    53    1
    53    26    54    1
    54    26    55    1
    55    26    56    1
    56    27    30    2
    57    27    31    1
    58    29    30    1
    59    30    59    1
    60    31    61    1
    61    31    62    1
    62    31    63    1
    63    32    33    1
    64    33    34    1
    65    33    35    1
    66    34    36    1
    67    34    64    1
    68    34    65    1
    69    35    66    1
    70    35    67    1
    71    35    68    1
    72    36    69    1
    73    36    70    1
    74    36    71    1
    75    37    38    1
    76    38    72    1
    77    38    73    1
    78    38    74    1
