@<TRIPOS>MOLECULE
IMPHY013802
 14 14 0 0 0
SMALL
GASTEIGER

@<TRIPOS>ATOM
      1 O           2.8090   -1.1739    0.0000 O.2     1  UNL1       -0.4992
      2 C           2.3090    0.3649    0.0000 C.3     1  UNL1        0.0054
      3 C           3.3090    0.3649    0.0000 C.2     1  UNL1       -0.0352
      4 C           2.0000   -0.5861    0.0000 C.3     1  UNL1        0.0925
      5 C           3.6180   -0.5861    0.0000 C.2     1  UNL1        0.0836
      6 C           3.8968    1.1739    0.0000 C.3     1  UNL1       -0.0405
      7 H           2.3738    0.9815    0.0000 H       1  UNL1        0.0344
      8 H           1.7026    0.4938    0.0000 H       1  UNL1        0.0344
      9 H           1.4336   -0.3340    0.0000 H       1  UNL1        0.0699
     10 H           1.6900   -1.1231    0.0000 H       1  UNL1        0.0699
     11 H           4.2077   -0.7777    0.0000 H       1  UNL1        0.1022
     12 H           4.3984    0.8095    0.0000 H       1  UNL1        0.0275
     13 H           4.2612    1.6755    0.0000 H       1  UNL1        0.0275
     14 H           3.3952    1.5384    0.0000 H       1  UNL1        0.0275
@<TRIPOS>BOND
     1     1     4    1
     2     1     5    1
     3     2     3    1
     4     2     4    1
     5     2     7    1
     6     2     8    1
     7     3     5    2
     8     3     6    1
     9     4     9    1
    10     4    10    1
    11     5    11    1
    12     6    12    1
    13     6    13    1
    14     6    14    1
