@<TRIPOS>MOLECULE
IMPHY014213
 30 32 0 0 0
SMALL
GASTEIGER

@<TRIPOS>ATOM
      1 O           6.0682   -1.0969    0.0000 O.2     1  UNL1       -0.4506
      2 O           7.8167    1.9377    0.0000 O.3     1  UNL1       -0.4942
      3 O           6.0682    1.9031    0.0000 O.2     1  UNL1       -0.2863
      4 O           4.3198   -2.1315    0.0000 O.3     1  UNL1       -0.5009
      5 O           9.5984   -1.1211    0.0000 O.3     1  UNL1       -0.5065
      6 O           2.5381   -1.1211    0.0000 O.3     1  UNL1       -0.5032
      7 C           6.9343    0.4031    0.0000 C.ar    1  UNL1        0.1063
      8 C           5.2022    0.4031    0.0000 C.ar    1  UNL1        0.0686
      9 C           6.9343   -0.5969    0.0000 C.ar    1  UNL1        0.1464
     10 C           5.2022   -0.5969    0.0000 C.ar    1  UNL1        0.1841
     11 C           6.0682    0.9031    0.0000 C.ar    1  UNL1        0.2038
     12 C           7.8282    0.9378    0.0000 C.ar    1  UNL1        0.1379
     13 C           4.3083   -1.1316    0.0000 C.ar    1  UNL1        0.2021
     14 C           7.8282   -1.1316    0.0000 C.ar    1  UNL1        0.0231
     15 C           4.3083    0.9378    0.0000 C.ar    1  UNL1       -0.0437
     16 C           8.7343    0.4239    0.0000 C.ar    1  UNL1        0.0225
     17 C           8.7343   -0.6177    0.0000 C.ar    1  UNL1        0.1239
     18 C           3.4022   -0.6177    0.0000 C.ar    1  UNL1        0.1620
     19 C           3.4022    0.4239    0.0000 C.ar    1  UNL1       -0.0156
     20 C           8.6768    2.4477    0.0000 C.3     1  UNL1        0.0788
     21 H           7.8210   -1.7515    0.0000 H       1  UNL1        0.0691
     22 H           4.3154    1.5577    0.0000 H       1  UNL1        0.0627
     23 H           9.2700    0.7360    0.0000 H       1  UNL1        0.0691
     24 H           2.8665    0.7360    0.0000 H       1  UNL1        0.0655
     25 H           3.7865   -2.4477    0.0000 H       1  UNL1        0.2924
     26 H           8.9930    1.9144    0.0000 H       1  UNL1        0.0660
     27 H           9.2102    2.7639    0.0000 H       1  UNL1        0.0660
     28 H           8.3606    2.9810    0.0000 H       1  UNL1        0.0660
     29 H          10.1365   -0.8131    0.0000 H       1  UNL1        0.2921
     30 H           2.0000   -0.8131    0.0000 H       1  UNL1        0.2923
@<TRIPOS>BOND
     1     1     9   ar
     2     1    10   ar
     3     2    12    1
     4     2    20    1
     5     3    11    2
     6     4    13    1
     7     4    25    1
     8     5    17    1
     9     5    29    1
    10     6    18    1
    11     6    30    1
    12     7     9   ar
    13     7    11   ar
    14     7    12   ar
    15     8    10   ar
    16     8    11   ar
    17     8    15   ar
    18     9    14   ar
    19    10    13   ar
    20    12    16   ar
    21    13    18   ar
    22    14    17   ar
    23    14    21    1
    24    15    19   ar
    25    15    22    1
    26    16    17   ar
    27    16    23    1
    28    18    19   ar
    29    19    24    1
    30    20    26    1
    31    20    27    1
    32    20    28    1
