@<TRIPOS>MOLECULE
IMPHY007724
 142 140 0 0 0
SMALL
GASTEIGER

@<TRIPOS>ATOM
      1 O           7.0321    2.8100    0.0000 O.3     1  UNL1       -0.3892
      2 O           6.1661    0.3100    0.0000 O.3     1  UNL1       -0.3876
      3 O           4.4340    3.3100    0.0000 O.3     1  UNL1       -0.3934
      4 O          21.3215    6.2400    0.0000 O.3     2  UNL2       -0.3806
      5 O          23.0536    7.2400    0.0000 O.3     2  UNL2       -0.4788
      6 O          22.1876    8.7400    0.0000 O.2     2  UNL2       -0.2481
      7 N           4.4340    1.3100    0.0000 N.3     1  UNL1       -0.3233
      8 C          10.9292    7.2400    0.0000 C.3     2  UNL2       -0.0531
      9 C          11.7953    7.7400    0.0000 C.3     2  UNL2       -0.0531
     10 C           8.7642    1.8100    0.0000 C.3     1  UNL1       -0.0506
     11 C           9.6302    1.3100    0.0000 C.3     1  UNL1       -0.0530
     12 C          10.0632    7.7400    0.0000 C.3     2  UNL2       -0.0531
     13 C          12.6613    7.2400    0.0000 C.3     2  UNL2       -0.0531
     14 C           7.8982    1.3100    0.0000 C.3     1  UNL1       -0.0244
     15 C          10.4962    1.8100    0.0000 C.3     1  UNL1       -0.0531
     16 C           9.1972    7.2400    0.0000 C.3     2  UNL2       -0.0531
     17 C          13.5273    7.7400    0.0000 C.3     2  UNL2       -0.0531
     18 C           7.0321    1.8100    0.0000 C.3     1  UNL1        0.0826
     19 C          11.3623    1.3100    0.0000 C.3     1  UNL1       -0.0531
     20 C           8.3312    7.7400    0.0000 C.3     2  UNL2       -0.0531
     21 C          14.3933    7.2400    0.0000 C.3     2  UNL2       -0.0531
     22 C          12.2283    1.8100    0.0000 C.3     1  UNL1       -0.0531
     23 C           7.4651    7.2400    0.0000 C.3     2  UNL2       -0.0531
     24 C          15.2594    7.7400    0.0000 C.3     2  UNL2       -0.0531
     25 C           6.1661    1.3100    0.0000 C.3     1  UNL1        0.0982
     26 C          13.0943    1.3100    0.0000 C.3     1  UNL1       -0.0531
     27 C           6.5991    7.7400    0.0000 C.3     2  UNL2       -0.0531
     28 C          16.1254    7.2400    0.0000 C.3     2  UNL2       -0.0531
     29 C          13.9603    1.8100    0.0000 C.3     1  UNL1       -0.0531
     30 C           5.7331    7.2400    0.0000 C.3     2  UNL2       -0.0531
     31 C          16.9914    7.7400    0.0000 C.3     2  UNL2       -0.0531
     32 CA          5.3001    1.8100    0.0000 C.3     1  UNL1        0.0570
     33 C          14.8264    1.3100    0.0000 C.3     1  UNL1       -0.0531
     34 C           4.8671    7.7400    0.0000 C.3     2  UNL2       -0.0531
     35 C          17.8574    7.2400    0.0000 C.3     2  UNL2       -0.0531
     36 C          15.6924    1.8100    0.0000 C.3     1  UNL1       -0.0531
     37 C           4.0010    7.2400    0.0000 C.3     2  UNL2       -0.0531
     38 C          18.7235    7.7400    0.0000 C.3     2  UNL2       -0.0530
     39 C          16.5584    1.3100    0.0000 C.3     1  UNL1       -0.0531
     40 C           3.1350    7.7400    0.0000 C.3     2  UNL2       -0.0531
     41 C          19.5895    7.2400    0.0000 C.3     2  UNL2       -0.0502
     42 C           5.3001    2.8100    0.0000 C.3     1  UNL1        0.0618
     43 C          17.4244    1.8100    0.0000 C.3     1  UNL1       -0.0533
     44 C           2.2690    7.2400    0.0000 C.3     2  UNL2       -0.0533
     45 C          20.4555    7.7400    0.0000 C.3     2  UNL2       -0.0164
     46 C          18.2905    1.3100    0.0000 C.3     1  UNL1       -0.0559
     47 C           1.4030    7.7400    0.0000 C.3     2  UNL2       -0.0559
     48 C          21.3215    7.2400    0.0000 C.3     2  UNL2        0.1514
     49 C          19.1565    1.8100    0.0000 C.3     1  UNL1       -0.0653
     50 C           0.5369    7.2400    0.0000 C.3     2  UNL2       -0.0653
     51 C          22.1876    7.7400    0.0000 C.2     2  UNL2        0.3336
     52 H          10.5307    6.7650    0.0000 H       2  UNL2        0.0265
     53 H          11.3278    6.7650    0.0000 H       2  UNL2        0.0265
     54 H          12.1938    8.2150    0.0000 H       2  UNL2        0.0265
     55 H          11.3967    8.2150    0.0000 H       2  UNL2        0.0265
     56 H           9.1627    2.2849    0.0000 H       1  UNL1        0.0266
     57 H           8.3656    2.2849    0.0000 H       1  UNL1        0.0266
     58 H           9.2317    0.8351    0.0000 H       1  UNL1        0.0265
     59 H          10.0287    0.8351    0.0000 H       1  UNL1        0.0265
     60 H          10.4617    8.2150    0.0000 H       2  UNL2        0.0265
     61 H           9.6647    8.2150    0.0000 H       2  UNL2        0.0265
     62 H          12.2628    6.7650    0.0000 H       2  UNL2        0.0265
     63 H          13.0598    6.7650    0.0000 H       2  UNL2        0.0265
     64 H           7.4996    0.8351    0.0000 H       1  UNL1        0.0291
     65 H           8.2967    0.8351    0.0000 H       1  UNL1        0.0291
     66 H          10.8948    2.2849    0.0000 H       1  UNL1        0.0265
     67 H          10.0977    2.2849    0.0000 H       1  UNL1        0.0265
     68 H           8.7987    6.7650    0.0000 H       2  UNL2        0.0265
     69 H           9.5957    6.7650    0.0000 H       2  UNL2        0.0265
     70 H          13.9258    8.2150    0.0000 H       2  UNL2        0.0265
     71 H          13.1288    8.2150    0.0000 H       2  UNL2        0.0265
     72 H           7.7682    2.2350    0.0000 H       1  UNL1        0.0619
     73 H          10.9637    0.8351    0.0000 H       1  UNL1        0.0265
     74 H          11.7608    0.8351    0.0000 H       1  UNL1        0.0265
     75 H           8.7297    8.2150    0.0000 H       2  UNL2        0.0265
     76 H           7.9326    8.2150    0.0000 H       2  UNL2        0.0265
     77 H          13.9948    6.7650    0.0000 H       2  UNL2        0.0265
     78 H          14.7919    6.7650    0.0000 H       2  UNL2        0.0265
     79 H          12.6268    2.2849    0.0000 H       1  UNL1        0.0265
     80 H          11.8298    2.2849    0.0000 H       1  UNL1        0.0265
     81 H           7.0666    6.7650    0.0000 H       2  UNL2        0.0265
     82 H           7.8637    6.7650    0.0000 H       2  UNL2        0.0265
     83 H          15.6579    8.2150    0.0000 H       2  UNL2        0.0265
     84 H          14.8608    8.2150    0.0000 H       2  UNL2        0.0265
     85 H           6.9022    0.8850    0.0000 H       1  UNL1        0.0635
     86 H          12.6958    0.8351    0.0000 H       1  UNL1        0.0265
     87 H          13.4928    0.8351    0.0000 H       1  UNL1        0.0265
     88 H           6.9976    8.2150    0.0000 H       2  UNL2        0.0265
     89 H           6.2006    8.2150    0.0000 H       2  UNL2        0.0265
     90 H          15.7269    6.7650    0.0000 H       2  UNL2        0.0265
     91 H          16.5239    6.7650    0.0000 H       2  UNL2        0.0265
     92 H          14.3589    2.2849    0.0000 H       1  UNL1        0.0265
     93 H          13.5618    2.2849    0.0000 H       1  UNL1        0.0265
     94 H           5.3346    6.7650    0.0000 H       2  UNL2        0.0265
     95 H           6.1316    6.7650    0.0000 H       2  UNL2        0.0265
     96 H          17.3899    8.2150    0.0000 H       2  UNL2        0.0265
     97 H          16.5929    8.2150    0.0000 H       2  UNL2        0.0265
     98 HA          5.3001    0.9600    0.0000 H       1  UNL1        0.0507
     99 H          14.4278    0.8351    0.0000 H       1  UNL1        0.0265
    100 H          15.2249    0.8351    0.0000 H       1  UNL1        0.0265
    101 H           5.2656    8.2150    0.0000 H       2  UNL2        0.0265
    102 H           4.4685    8.2150    0.0000 H       2  UNL2        0.0265
    103 H          17.4589    6.7650    0.0000 H       2  UNL2        0.0265
    104 H          18.2560    6.7650    0.0000 H       2  UNL2        0.0265
    105 H          16.0909    2.2849    0.0000 H       1  UNL1        0.0265
    106 H          15.2939    2.2849    0.0000 H       1  UNL1        0.0265
    107 H           3.6025    6.7650    0.0000 H       2  UNL2        0.0265
    108 H           4.3996    6.7650    0.0000 H       2  UNL2        0.0265
    109 H          19.1220    8.2150    0.0000 H       2  UNL2        0.0265
    110 H          18.3249    8.2150    0.0000 H       2  UNL2        0.0265
    111 H          16.1599    0.8351    0.0000 H       1  UNL1        0.0265
    112 H          16.9569    0.8351    0.0000 H       1  UNL1        0.0265
    113 H           3.5335    8.2150    0.0000 H       2  UNL2        0.0265
    114 H           2.7365    8.2150    0.0000 H       2  UNL2        0.0265
    115 H          19.1910    6.7650    0.0000 H       2  UNL2        0.0266
    116 H          19.9880    6.7650    0.0000 H       2  UNL2        0.0266
    117 H1          5.9107    2.7023    0.0000 H       1  UNL1        0.0573
    118 H2          5.5121    3.3926    0.0000 H       1  UNL1        0.0573
    119 H          17.8230    2.2849    0.0000 H       1  UNL1        0.0265
    120 H          17.0259    2.2849    0.0000 H       1  UNL1        0.0265
    121 H           1.8705    6.7650    0.0000 H       2  UNL2        0.0265
    122 H           2.6675    6.7650    0.0000 H       2  UNL2        0.0265
    123 H           7.5691    3.1200    0.0000 H       1  UNL1        0.2099
    124 H          20.8540    8.2150    0.0000 H       2  UNL2        0.0295
    125 H          20.0570    8.2150    0.0000 H       2  UNL2        0.0295
    126 H           5.6292    0.0000    0.0000 H       1  UNL1        0.2100
    127 H1          3.8971    1.6200    0.0000 H       1  UNL1        0.1186
    128 H2          4.4340    0.6900    0.0000 H       1  UNL1        0.1186
    129 H          17.8919    0.8351    0.0000 H       1  UNL1        0.0263
    130 H          18.6890    0.8351    0.0000 H       1  UNL1        0.0263
    131 H           1.8015    8.2150    0.0000 H       2  UNL2        0.0263
    132 H           1.0044    8.2150    0.0000 H       2  UNL2        0.0263
    133 H          20.5854    6.8150    0.0000 H       2  UNL2        0.0710
    134 H           4.4340    3.9300    0.0000 H       1  UNL1        0.2095
    135 H          19.4665    1.2731    0.0000 H       1  UNL1        0.0230
    136 H          19.6934    2.1200    0.0000 H       1  UNL1        0.0230
    137 H          18.8465    2.3469    0.0000 H       1  UNL1        0.0230
    138 H           0.2269    7.7769    0.0000 H       2  UNL2        0.0230
    139 H           0.0000    6.9300    0.0000 H       2  UNL2        0.0230
    140 H           0.8469    6.7031    0.0000 H       2  UNL2        0.0230
    141 H          20.7846    5.9300    0.0000 H       2  UNL2        0.2105
    142 H          23.5905    7.5500    0.0000 H       2  UNL2        0.2951
@<TRIPOS>BOND
     1     1    18    1
     2     1   123    1
     3     2    25    1
     4     2   126    1
     5     3    42    1
     6     3   134    1
     7     4    48    1
     8     4   141    1
     9     5    51    1
    10     5   142    1
    11     6    51    2
    12     7    32    1
    13     7   127    1
    14     7   128    1
    15     8     9    1
    16     8    12    1
    17     8    52    1
    18     8    53    1
    19     9    13    1
    20     9    54    1
    21     9    55    1
    22    10    11    1
    23    10    14    1
    24    10    56    1
    25    10    57    1
    26    11    15    1
    27    11    58    1
    28    11    59    1
    29    12    16    1
    30    12    60    1
    31    12    61    1
    32    13    17    1
    33    13    62    1
    34    13    63    1
    35    14    18    1
    36    14    64    1
    37    14    65    1
    38    15    19    1
    39    15    66    1
    40    15    67    1
    41    16    20    1
    42    16    68    1
    43    16    69    1
    44    17    21    1
    45    17    70    1
    46    17    71    1
    47    18    25    1
    48    18    72    1
    49    19    22    1
    50    19    73    1
    51    19    74    1
    52    20    23    1
    53    20    75    1
    54    20    76    1
    55    21    24    1
    56    21    77    1
    57    21    78    1
    58    22    26    1
    59    22    79    1
    60    22    80    1
    61    23    27    1
    62    23    81    1
    63    23    82    1
    64    24    28    1
    65    24    83    1
    66    24    84    1
    67    25    32    1
    68    25    85    1
    69    26    29    1
    70    26    86    1
    71    26    87    1
    72    27    30    1
    73    27    88    1
    74    27    89    1
    75    28    31    1
    76    28    90    1
    77    28    91    1
    78    29    33    1
    79    29    92    1
    80    29    93    1
    81    30    34    1
    82    30    94    1
    83    30    95    1
    84    31    35    1
    85    31    96    1
    86    31    97    1
    87    32    42    1
    88    32    98    1
    89    33    36    1
    90    33    99    1
    91    33   100    1
    92    34    37    1
    93    34   101    1
    94    34   102    1
    95    35    38    1
    96    35   103    1
    97    35   104    1
    98    36    39    1
    99    36   105    1
   100    36   106    1
   101    37    40    1
   102    37   107    1
   103    37   108    1
   104    38    41    1
   105    38   109    1
   106    38   110    1
   107    39    43    1
   108    39   111    1
   109    39   112    1
   110    40    44    1
   111    40   113    1
   112    40   114    1
   113    41    45    1
   114    41   115    1
   115    41   116    1
   116    42   117    1
   117    42   118    1
   118    43    46    1
   119    43   119    1
   120    43   120    1
   121    44    47    1
   122    44   121    1
   123    44   122    1
   124    45    48    1
   125    45   124    1
   126    45   125    1
   127    46    49    1
   128    46   129    1
   129    46   130    1
   130    47    50    1
   131    47   131    1
   132    47   132    1
   133    48    51    1
   134    48   133    1
   135    49   135    1
   136    49   136    1
   137    49   137    1
   138    50   138    1
   139    50   139    1
   140    50   140    1
