@<TRIPOS>MOLECULE
IMPHY007656
 39 44 0 0 0
SMALL
GASTEIGER

@<TRIPOS>ATOM
      1 O           2.0000    3.5753    0.0000 O.3     1  UNL1       -0.4526
      2 O           3.4519    4.4135    0.0000 O.3     1  UNL1       -0.4526
      3 O           6.3417   -3.5326    0.0000 O.3     1  UNL1       -0.4526
      4 O           4.8362   -4.4174    0.0000 O.3     1  UNL1       -0.4526
      5 N           5.4178    0.3320    0.0000 N.ar    1  UNL1       -0.1988
      6 C           4.5518   -0.1680    0.0000 C.ar    1  UNL1        0.2231
      7 C           3.6857    0.3320    0.0000 C.ar    1  UNL1        0.0548
      8 C           3.6857    1.3320    0.0000 C.ar    1  UNL1        0.0049
      9 C           4.5678   -1.2095    0.0000 C.ar    1  UNL1        0.0576
     10 C           4.5518    1.8320    0.0000 C.ar    1  UNL1        0.0500
     11 C           3.6698   -1.7372    0.0000 C.ar    1  UNL1       -0.0079
     12 C           5.4178    1.3320    0.0000 C.ar    1  UNL1        0.1794
     13 C           2.7757   -0.1748    0.0000 C.ar    1  UNL1       -0.0471
     14 C           2.7757    1.8388    0.0000 C.ar    1  UNL1       -0.0075
     15 C           2.7677   -1.2164    0.0000 C.ar    1  UNL1       -0.0529
     16 C           5.5197   -1.7301    0.0000 C.ar    1  UNL1       -0.0021
     17 C           4.5678    2.8735    0.0000 C.ar    1  UNL1       -0.0028
     18 C           2.7677    2.8804    0.0000 C.ar    1  UNL1        0.1668
     19 C           3.6614   -2.8222    0.0000 C.ar    1  UNL1       -0.0082
     20 C           5.5365   -2.8150    0.0000 C.ar    1  UNL1        0.1670
     21 C           3.6698    3.4013    0.0000 C.ar    1  UNL1        0.1670
     22 C           4.6010   -3.3647    0.0000 C.ar    1  UNL1        0.1668
     23 C           6.2838   -0.1680    0.0000 C.3     1  UNL1        0.1410
     24 C           2.4220    4.5209    0.0000 C.3     1  UNL1        0.2332
     25 C           5.9097   -4.5209    0.0000 C.3     1  UNL1        0.2332
     26 H           5.9547    1.6420    0.0000 H       1  UNL1        0.1383
     27 H           2.2424    0.1414    0.0000 H       1  UNL1        0.0626
     28 H           2.2424    1.5227    0.0000 H       1  UNL1        0.0662
     29 H           6.0506   -1.4098    0.0000 H       1  UNL1        0.0663
     30 H           2.2296   -1.5244    0.0000 H       1  UNL1        0.0624
     31 H           5.1083    3.1773    0.0000 H       1  UNL1        0.0663
     32 H           3.1233   -3.1301    0.0000 H       1  UNL1        0.0661
     33 H           5.9738   -0.7049    0.0000 H       1  UNL1        0.0993
     34 H           6.8207   -0.4780    0.0000 H       1  UNL1        0.0993
     35 H           6.5938    0.3689    0.0000 H       1  UNL1        0.0993
     36 H           2.5507    5.1274    0.0000 H       1  UNL1        0.1166
     37 H           1.8324    4.7126    0.0000 H       1  UNL1        0.1166
     38 H           5.7857   -5.1284    0.0000 H       1  UNL1        0.1166
     39 H           6.5008   -4.7081    0.0000 H       1  UNL1        0.1166
@<TRIPOS>UNITY_ATOM_ATTR
5 1
charge 1
@<TRIPOS>BOND
     1     1    18    1
     2     1    24    1
     3     2    21    1
     4     2    24    1
     5     3    20    1
     6     3    25    1
     7     4    22    1
     8     4    25    1
     9     5     6   ar
    10     5    12   ar
    11     5    23    1
    12     6     7   ar
    13     6     9   ar
    14     7     8   ar
    15     7    13   ar
    16     8    10   ar
    17     8    14   ar
    18     9    11   ar
    19     9    16   ar
    20    10    12   ar
    21    10    17   ar
    22    11    15   ar
    23    11    19   ar
    24    12    26    1
    25    13    15   ar
    26    13    27    1
    27    14    18   ar
    28    14    28    1
    29    15    30    1
    30    16    20   ar
    31    16    29    1
    32    17    21   ar
    33    17    31    1
    34    18    21   ar
    35    19    22   ar
    36    19    32    1
    37    20    22   ar
    38    23    33    1
    39    23    34    1
    40    23    35    1
    41    24    36    1
    42    24    37    1
    43    25    38    1
    44    25    39    1
