@<TRIPOS>MOLECULE
IMPHY007988
 58 60 0 0 0
SMALL
GASTEIGER

@<TRIPOS>ATOM
      1 O           4.6419   -0.2863    0.0000 O.3     1  UNL1       -0.4804
      2 O           6.3958    2.7452    0.0000 O.3     1  UNL1       -0.5055
      3 O           2.8560    2.7588    0.0000 O.3     1  UNL1       -0.5051
      4 O           2.0000    1.2005    0.0000 O.2     1  UNL1       -0.2955
      5 O           3.7658    4.2863    0.0000 O.2     1  UNL1       -0.2955
      6 C           5.5080   -0.7863    0.0000 C.3     1  UNL1        0.1294
      7 C           6.3740   -0.2863    0.0000 C.3     1  UNL1       -0.0022
      8 C           6.3740    0.7137    0.0000 C.3     1  UNL1       -0.0047
      9 C           6.3740   -1.2863    0.0000 C.3     1  UNL1       -0.0087
     10 C           5.5080   -2.7863    0.0000 C.3     1  UNL1       -0.0203
     11 C           6.3740   -2.2863    0.0000 C.3     1  UNL1       -0.0426
     12 C           4.6419   -1.2863    0.0000 C.2     1  UNL1       -0.0447
     13 C           7.2400    1.2137    0.0000 C.3     1  UNL1       -0.0435
     14 C           5.5080    1.2137    0.0000 C.ar    1  UNL1        0.0405
     15 C           4.6419   -2.2863    0.0000 C.2     1  UNL1       -0.0809
     16 C           5.5080   -3.7863    0.0000 C.3     1  UNL1       -0.0404
     17 C           4.6419    0.7137    0.0000 C.ar    1  UNL1        0.1424
     18 C           8.1060    0.7137    0.0000 C.3     1  UNL1       -0.0462
     19 C           5.5240    2.2552    0.0000 C.ar    1  UNL1        0.1375
     20 C           3.7319    1.2206    0.0000 C.ar    1  UNL1        0.0983
     21 C           6.3740   -4.2863    0.0000 C.3     1  UNL1       -0.0621
     22 C           4.6419   -4.2863    0.0000 C.3     1  UNL1       -0.0621
     23 C           8.9721    1.2137    0.0000 C.3     1  UNL1       -0.0626
     24 C           8.1060   -0.2863    0.0000 C.3     1  UNL1       -0.0626
     25 C           4.6260    2.7830    0.0000 C.ar    1  UNL1        0.0980
     26 C           3.7239    2.2622    0.0000 C.ar    1  UNL1        0.1443
     27 C           2.8718    0.7106    0.0000 C.2     1  UNL1        0.1573
     28 C           4.6298    3.7830    0.0000 C.2     1  UNL1        0.1573
     29 H           6.5860   -0.8689    0.0000 H       1  UNL1        0.0313
     30 H           6.9846   -0.1786    0.0000 H       1  UNL1        0.0313
     31 H           6.9109    0.4037    0.0000 H       1  UNL1        0.0353
     32 H           6.9846   -1.3940    0.0000 H       1  UNL1        0.0307
     33 H           6.5860   -0.7037    0.0000 H       1  UNL1        0.0307
     34 H           6.0449   -3.0963    0.0000 H       1  UNL1        0.0345
     35 H           6.5860   -2.8689    0.0000 H       1  UNL1        0.0272
     36 H           6.9846   -2.1786    0.0000 H       1  UNL1        0.0272
     37 H           4.1050   -0.9763    0.0000 H       1  UNL1        0.0608
     38 H           7.6385    1.6886    0.0000 H       1  UNL1        0.0274
     39 H           6.8415    1.6886    0.0000 H       1  UNL1        0.0274
     40 H           4.1050   -2.5963    0.0000 H       1  UNL1        0.0573
     41 H           5.5080   -4.4063    0.0000 H       1  UNL1        0.0301
     42 H           8.6430    0.4037    0.0000 H       1  UNL1        0.0296
     43 H           6.0640   -4.8232    0.0000 H       1  UNL1        0.0233
     44 H           6.9109   -4.5963    0.0000 H       1  UNL1        0.0233
     45 H           6.6840   -3.7494    0.0000 H       1  UNL1        0.0233
     46 H           4.3319   -3.7494    0.0000 H       1  UNL1        0.0233
     47 H           4.1050   -4.5963    0.0000 H       1  UNL1        0.0233
     48 H           4.9519   -4.8232    0.0000 H       1  UNL1        0.0233
     49 H           9.2821    0.6768    0.0000 H       1  UNL1        0.0232
     50 H           9.5090    1.5237    0.0000 H       1  UNL1        0.0232
     51 H           8.6621    1.7506    0.0000 H       1  UNL1        0.0232
     52 H           7.4860   -0.2863    0.0000 H       1  UNL1        0.0232
     53 H           8.1060   -0.9063    0.0000 H       1  UNL1        0.0232
     54 H           8.7260   -0.2863    0.0000 H       1  UNL1        0.0232
     55 H           2.8789    0.0906    0.0000 H       1  UNL1        0.1084
     56 H           6.4029    3.3651    0.0000 H       1  UNL1        0.2922
     57 H           5.1680    4.0909    0.0000 H       1  UNL1        0.1084
     58 H           2.8536    3.3788    0.0000 H       1  UNL1        0.2922
@<TRIPOS>BOND
     1     1     6    1
     2     1    17    1
     3     2    19    1
     4     2    56    1
     5     3    26    1
     6     3    58    1
     7     4    27    2
     8     5    28    2
     9     6     7    1
    10     6     9    1
    11     6    12    1
    12     7     8    1
    13     7    29    1
    14     7    30    1
    15     8    13    1
    16     8    14    1
    17     8    31    1
    18     9    11    1
    19     9    32    1
    20     9    33    1
    21    10    11    1
    22    10    15    1
    23    10    16    1
    24    10    34    1
    25    11    35    1
    26    11    36    1
    27    12    15    2
    28    12    37    1
    29    13    18    1
    30    13    38    1
    31    13    39    1
    32    14    17   ar
    33    14    19   ar
    34    15    40    1
    35    16    21    1
    36    16    22    1
    37    16    41    1
    38    17    20   ar
    39    18    23    1
    40    18    24    1
    41    18    42    1
    42    19    25   ar
    43    20    26   ar
    44    20    27    1
    45    21    43    1
    46    21    44    1
    47    21    45    1
    48    22    46    1
    49    22    47    1
    50    22    48    1
    51    23    49    1
    52    23    50    1
    53    23    51    1
    54    24    52    1
    55    24    53    1
    56    24    54    1
    57    25    26   ar
    58    25    28    1
    59    27    55    1
    60    28    57    1
