@<TRIPOS>MOLECULE
IMPHY012674
 69 72 0 0 0
SMALL
GASTEIGER

@<TRIPOS>ATOM
      1 O           3.6437   -1.7966    0.0000 O.3     1  UNL1       -0.4570
      2 O           3.4259    1.2716    0.0000 O.3     1  UNL1       -0.3870
      3 O           5.3514    3.3763    0.0000 O.3     1  UNL1       -0.3797
      4 O           4.6304   -3.2202    0.0000 O.2     1  UNL1       -0.2505
      5 O           4.5278    4.3595    0.0000 O.2     1  UNL1       -0.2893
      6 O           8.0064    1.3021    0.0000 O.3     1  UNL1       -0.4604
      7 O           9.2761    2.4802    0.0000 O.2     1  UNL1       -0.2512
      8 C           5.3217   -0.6336    0.0000 C.3     1  UNL1        0.0172
      9 C           4.4656   -1.2270    0.0000 C.3     1  UNL1        0.1233
     10 C           5.4078   -1.6721    0.0000 C.3     1  UNL1        0.0124
     11 C           5.2279    0.4038    0.0000 C.3     1  UNL1        0.0143
     12 C           4.3269    0.8377    0.0000 C.3     1  UNL1        0.0846
     13 C           3.5271   -0.7750    0.0000 C.3     1  UNL1       -0.0068
     14 C           3.4573    0.2643    0.0000 C.3     1  UNL1       -0.0101
     15 C           6.4044   -1.5897    0.0000 C.3     1  UNL1       -0.0558
     16 C           4.9809   -2.5764    0.0000 C.3     1  UNL1       -0.0558
     17 C           4.1044    1.8126    0.0000 C.3     1  UNL1        0.0438
     18 C           6.1288    0.8377    0.0000 C.2     1  UNL1       -0.0752
     19 C           4.7279    2.5945    0.0000 C.3     1  UNL1        0.1403
     20 C           2.4593    0.2011    0.0000 C.3     1  UNL1       -0.0596
     21 C           6.3514    1.8126    0.0000 C.2     1  UNL1       -0.0330
     22 C           5.7279    2.5945    0.0000 C.3     1  UNL1        0.0084
     23 C           3.1746    2.1643    0.0000 C.2     1  UNL1       -0.0687
     24 C           3.7262   -2.7932    0.0000 C.2     1  UNL1        0.3102
     25 C           4.1781    3.4227    0.0000 C.2     1  UNL1        0.1909
     26 C           3.2200    3.1574    0.0000 C.2     1  UNL1       -0.0086
     27 C           7.3263    2.0351    0.0000 C.3     1  UNL1        0.1137
     28 C           2.9043   -3.3629    0.0000 C.3     1  UNL1        0.0509
     29 C           2.4382    3.7809    0.0000 C.3     1  UNL1       -0.0366
     30 C           2.9867   -4.3595    0.0000 C.3     1  UNL1       -0.0525
     31 C           2.0000   -2.9360    0.0000 C.3     1  UNL1       -0.0525
     32 C           8.9814    1.5246    0.0000 C.2     1  UNL1        0.3042
     33 C           9.6616    0.7916    0.0000 C.3     1  UNL1        0.0332
     34 H           6.1685   -0.5602    0.0000 H       1  UNL1        0.0353
     35 H           5.9672   -0.0155    0.0000 H       1  UNL1        0.0375
     36 H           2.9105   -0.7101    0.0000 H       1  UNL1        0.0307
     37 H           3.3577   -1.3714    0.0000 H       1  UNL1        0.0307
     38 H           3.2604    0.8522    0.0000 H       1  UNL1        0.0327
     39 H           6.4556   -2.2076    0.0000 H       1  UNL1        0.0236
     40 H           7.0223   -1.5386    0.0000 H       1  UNL1        0.0236
     41 H           6.3534   -0.9718    0.0000 H       1  UNL1        0.0236
     42 H           4.4203   -2.3117    0.0000 H       1  UNL1        0.0236
     43 H           4.7162   -3.1370    0.0000 H       1  UNL1        0.0236
     44 H           5.5416   -2.8411    0.0000 H       1  UNL1        0.0236
     45 H           4.9330    1.6235    0.0000 H       1  UNL1        0.0404
     46 H           6.6136    0.4511    0.0000 H       1  UNL1        0.0576
     47 H           2.4201    0.8198    0.0000 H       1  UNL1        0.0233
     48 H           1.8405    0.1619    0.0000 H       1  UNL1        0.0233
     49 H           2.4985   -0.4177    0.0000 H       1  UNL1        0.0233
     50 H           2.8077    1.2253    0.0000 H       1  UNL1        0.2102
     51 H           6.2865    2.8635    0.0000 H       1  UNL1        0.0343
     52 H           5.5899    3.1989    0.0000 H       1  UNL1        0.0343
     53 H           2.6566    1.8237    0.0000 H       1  UNL1        0.0580
     54 H           5.9644    3.2839    0.0000 H       1  UNL1        0.2108
     55 H           7.8471    2.3715    0.0000 H       1  UNL1        0.0745
     56 H           7.0854    2.6065    0.0000 H       1  UNL1        0.0745
     57 H           2.8532   -2.7450    0.0000 H       1  UNL1        0.0408
     58 H           2.8248    4.2656    0.0000 H       1  UNL1        0.0279
     59 H           1.9535    4.1674    0.0000 H       1  UNL1        0.0279
     60 H           2.0516    3.2961    0.0000 H       1  UNL1        0.0279
     61 H           2.3688   -4.4106    0.0000 H       1  UNL1        0.0237
     62 H           3.0378   -4.9774    0.0000 H       1  UNL1        0.0237
     63 H           3.6046   -4.3084    0.0000 H       1  UNL1        0.0237
     64 H           2.2647   -2.3753    0.0000 H       1  UNL1        0.0237
     65 H           1.4393   -2.6713    0.0000 H       1  UNL1        0.0237
     66 H           1.7353   -3.4966    0.0000 H       1  UNL1        0.0237
     67 H           9.2070    0.3699    0.0000 H       1  UNL1        0.0342
     68 H          10.0833    0.3371    0.0000 H       1  UNL1        0.0342
     69 H          10.1160    1.2133    0.0000 H       1  UNL1        0.0342
@<TRIPOS>BOND
     1     9     1    1
     2     1    24    1
     3    12     2    1
     4     2    50    1
     5    19     3    1
     6     3    54    1
     7     4    24    2
     8     5    25    2
     9     6    27    1
    10     6    32    1
    11     7    32    2
    12     8     9    1
    13     8    10    1
    14     8    11    1
    15     8    34    1
    16     9    10    1
    17     9    13    1
    18    10    15    1
    19    10    16    1
    20    11    12    1
    21    11    18    1
    22    11    35    1
    23    12    14    1
    24    12    17    1
    25    13    14    1
    26    13    36    1
    27    13    37    1
    28    14    20    1
    29    14    38    1
    30    15    39    1
    31    15    40    1
    32    15    41    1
    33    16    42    1
    34    16    43    1
    35    16    44    1
    36    17    19    1
    37    17    23    1
    38    17    45    1
    39    18    21    2
    40    18    46    1
    41    19    22    1
    42    19    25    1
    43    20    47    1
    44    20    48    1
    45    20    49    1
    46    21    22    1
    47    21    27    1
    48    22    51    1
    49    22    52    1
    50    23    26    2
    51    23    53    1
    52    24    28    1
    53    25    26    1
    54    26    29    1
    55    27    55    1
    56    27    56    1
    57    28    30    1
    58    28    31    1
    59    28    57    1
    60    29    58    1
    61    29    59    1
    62    29    60    1
    63    30    61    1
    64    30    62    1
    65    30    63    1
    66    31    64    1
    67    31    65    1
    68    31    66    1
    69    32    33    1
    70    33    67    1
    71    33    68    1
    72    33    69    1
