@<TRIPOS>MOLECULE
IMPHY008364
 33 34 0 0 0
SMALL
GASTEIGER

@<TRIPOS>ATOM
      1 O           4.5981   -2.0880    0.0000 O.3     1  UNL1       -0.4791
      2 O           3.0981   -1.2220    0.0000 O.2     1  UNL1       -0.2485
      3 O           2.8660    2.6440    0.0000 O.3     1  UNL1       -0.4795
      4 OXT         2.0000    1.1440    0.0000 O.2     1  UNL1       -0.2492
      5 O           7.5981   -2.0880    0.0000 O.3     1  UNL1       -0.4806
      6 O           6.0981   -2.9540    0.0000 O.2     1  UNL1       -0.2510
      7 N           3.7320    0.1440    0.0000 N.3     1  UNL1       -0.2841
      8 N           6.4103    1.4488    0.0000 N.ar    1  UNL1       -0.3479
      9 N           6.4103   -0.1607    0.0000 N.ar    1  UNL1       -0.2382
     10 C           4.5981   -0.3560    0.0000 C.3     1  UNL1        0.1620
     11 CA          3.7320    1.1440    0.0000 C.3     1  UNL1        0.1122
     12 C           5.4641    0.1440    0.0000 C.ar    1  UNL1        0.0931
     13 C           4.5981    1.6440    0.0000 C.3     1  UNL1        0.0152
     14 C           5.0981   -1.2220    0.0000 C.3     1  UNL1       -0.0084
     15 C           5.4641    1.1440    0.0000 C.ar    1  UNL1        0.0430
     16 C           4.0981   -1.2220    0.0000 C.2     1  UNL1        0.3313
     17 C           6.0981   -1.2220    0.0000 C.3     1  UNL1        0.0473
     18 C           2.8660    1.6440    0.0000 C.2     1  UNL1        0.3223
     19 C           6.9939    0.6440    0.0000 C.ar    1  UNL1        0.0939
     20 C           6.5981   -2.0880    0.0000 C.2     1  UNL1        0.3048
     21 HA          3.1951    0.8340    0.0000 H       1  UNL1        0.0580
     22 H           3.1951   -0.1660    0.0000 H       1  UNL1        0.1241
     23 H           4.9966    2.1190    0.0000 H       1  UNL1        0.0349
     24 H           4.1996    2.1190    0.0000 H       1  UNL1        0.0349
     25 H           4.5155   -1.4340    0.0000 H       1  UNL1        0.0297
     26 H           5.2057   -1.8326    0.0000 H       1  UNL1        0.0297
     27 H           6.6807   -1.0099    0.0000 H       1  UNL1        0.0378
     28 H           5.9904   -0.6114    0.0000 H       1  UNL1        0.0378
     29 H           6.6029    2.0381    0.0000 H       1  UNL1        0.1665
     30 H           7.6139    0.6440    0.0000 H       1  UNL1        0.1027
     31 H           4.2881   -2.6250    0.0000 H       1  UNL1        0.2951
     32 H           2.3291    2.9540    0.0000 H       1  UNL1        0.2951
     33 H           7.9081   -2.6250    0.0000 H       1  UNL1        0.2951
@<TRIPOS>BOND
     1     1    16    1
     2     1    31    1
     3     2    16    2
     4     3    18    1
     5     3    32    1
     6     4    18    2
     7     5    20    1
     8     5    33    1
     9     6    20    2
    10     7    10    1
    11     7    11    1
    12     7    22    1
    13     8    15   ar
    14     8    19   ar
    15     8    29    1
    16     9    12   ar
    17     9    19   ar
    18    10    12    1
    19    10    14    1
    20    10    16    1
    21    11    13    1
    22    11    18    1
    23    11    21    1
    24    12    15   ar
    25    13    15    1
    26    13    23    1
    27    13    24    1
    28    14    17    1
    29    14    25    1
    30    14    26    1
    31    17    20    1
    32    17    27    1
    33    17    28    1
    34    19    30    1
