@<TRIPOS>MOLECULE
IMPHY013196
 57 58 0 0 0
SMALL
GASTEIGER

@<TRIPOS>ATOM
      1 O           6.8671   -0.2110    0.0000 O.3     1  UNL1       -0.3374
      2 O           5.1350   -0.2110    0.0000 O.3     1  UNL1       -0.3405
      3 O           4.3671    1.6550    0.0000 O.3     1  UNL1       -0.3917
      4 O           6.8671   -2.2110    0.0000 O.3     1  UNL1       -0.3841
      5 O           5.1350   -3.2110    0.0000 O.3     1  UNL1       -0.3864
      6 O           3.4030   -2.2110    0.0000 O.3     1  UNL1       -0.3865
      7 O           2.5369   -0.7110    0.0000 O.3     1  UNL1       -0.3924
      8 O           9.3671    3.3870    0.0000 O.2     1  UNL1       -0.2923
      9 C           6.8671    0.7890    0.0000 C.3     1  UNL1        0.1008
     10 C           6.8671    2.5210    0.0000 C.3     1  UNL1       -0.0014
     11 C           5.8671    0.7890    0.0000 C.3     1  UNL1        0.0067
     12 C           5.8671    2.5210    0.0000 C.3     1  UNL1       -0.0172
     13 C           7.3671    1.6550    0.0000 C.2     1  UNL1        0.0096
     14 C           5.3671    1.6550    0.0000 C.3     1  UNL1        0.0590
     15 C           6.0010   -0.7110    0.0000 C.3     1  UNL1        0.1889
     16 C           7.7331    0.2890    0.0000 C.3     1  UNL1       -0.0311
     17 C           6.8671    3.5210    0.0000 C.3     1  UNL1       -0.0553
     18 C           7.7331    3.0210    0.0000 C.3     1  UNL1       -0.0553
     19 C           6.0010   -1.7110    0.0000 C.3     1  UNL1        0.1341
     20 C           5.1350   -2.2110    0.0000 C.3     1  UNL1        0.1141
     21 C           4.2690   -1.7110    0.0000 C.3     1  UNL1        0.1119
     22 C           4.2690   -0.7110    0.0000 C.3     1  UNL1        0.1130
     23 C           8.3671    1.6550    0.0000 C.1     1  UNL1       -0.1138
     24 C           3.4030   -0.2110    0.0000 C.3     1  UNL1        0.0730
     25 C           9.3671    1.6550    0.0000 C.2     1  UNL1        0.0227
     26 C           9.8671    2.5210    0.0000 C.2     1  UNL1        0.1605
     27 C          10.8671    2.5210    0.0000 C.3     1  UNL1       -0.0014
     28 H           5.2844    0.5769    0.0000 H       1  UNL1        0.0321
     29 H           5.9747    0.1784    0.0000 H       1  UNL1        0.0321
     30 H           5.9747    3.1316    0.0000 H       1  UNL1        0.0299
     31 H           5.2844    2.7331    0.0000 H       1  UNL1        0.0299
     32 H           5.0571    1.1181    0.0000 H       1  UNL1        0.0594
     33 H           6.0010   -0.0910    0.0000 H       1  UNL1        0.0938
     34 H           7.4231   -0.2480    0.0000 H       1  UNL1        0.0261
     35 H           8.2700   -0.0210    0.0000 H       1  UNL1        0.0261
     36 H           8.0431    0.8259    0.0000 H       1  UNL1        0.0261
     37 H           7.4871    3.5210    0.0000 H       1  UNL1        0.0238
     38 H           6.8671    4.1410    0.0000 H       1  UNL1        0.0238
     39 H           6.2471    3.5210    0.0000 H       1  UNL1        0.0238
     40 H           8.0431    2.4841    0.0000 H       1  UNL1        0.0238
     41 H           8.2700    3.3310    0.0000 H       1  UNL1        0.0238
     42 H           7.4231    3.5580    0.0000 H       1  UNL1        0.0238
     43 H           6.5380   -1.4010    0.0000 H       1  UNL1        0.0671
     44 H           4.5981   -2.5210    0.0000 H       1  UNL1        0.0648
     45 H           3.7320   -1.4010    0.0000 H       1  UNL1        0.0647
     46 H           4.2690   -0.0910    0.0000 H       1  UNL1        0.0647
     47 H           4.0571    2.1919    0.0000 H       1  UNL1        0.2098
     48 H           3.8015    0.2639    0.0000 H       1  UNL1        0.0584
     49 H           3.0044    0.2639    0.0000 H       1  UNL1        0.0584
     50 H           6.8671   -2.8310    0.0000 H       1  UNL1        0.2101
     51 H           4.5981   -3.5210    0.0000 H       1  UNL1        0.2100
     52 H           3.4030   -2.8310    0.0000 H       1  UNL1        0.2100
     53 H           9.6771    1.1181    0.0000 H       1  UNL1        0.0741
     54 H           2.0000   -0.4010    0.0000 H       1  UNL1        0.2095
     55 H          10.8671    1.9010    0.0000 H       1  UNL1        0.0309
     56 H          11.4871    2.5210    0.0000 H       1  UNL1        0.0309
     57 H          10.8671    3.1410    0.0000 H       1  UNL1        0.0309
@<TRIPOS>BOND
     1     9     1    1
     2    15     1    1
     3     2    15    1
     4     2    22    1
     5    14     3    1
     6     3    47    1
     7    19     4    1
     8     4    50    1
     9    20     5    1
    10     5    51    1
    11    21     6    1
    12     6    52    1
    13     7    24    1
    14     7    54    1
    15     8    26    2
    16     9    11    1
    17     9    13    1
    18     9    16    1
    19    10    12    1
    20    10    13    1
    21    10    17    1
    22    10    18    1
    23    11    14    1
    24    11    28    1
    25    11    29    1
    26    12    14    1
    27    12    30    1
    28    12    31    1
    29    13    23    2
    30    14    32    1
    31    15    19    1
    32    15    33    1
    33    16    34    1
    34    16    35    1
    35    16    36    1
    36    17    37    1
    37    17    38    1
    38    17    39    1
    39    18    40    1
    40    18    41    1
    41    18    42    1
    42    19    20    1
    43    19    43    1
    44    20    21    1
    45    20    44    1
    46    21    22    1
    47    21    45    1
    48    22    24    1
    49    22    46    1
    50    23    25    2
    51    24    48    1
    52    24    49    1
    53    25    26    1
    54    25    53    1
    55    26    27    1
    56    27    55    1
    57    27    56    1
    58    27    57    1
