@<TRIPOS>MOLECULE
IMPHY008987
 54 53 0 0 0
SMALL
GASTEIGER

@<TRIPOS>ATOM
      1 O          24.5167    0.7500    0.0000 O.3     1  UNL1       -0.4485
      2 O          25.3827   -0.7500    0.0000 O.2     1  UNL1       -0.2501
      3 C          13.2583    0.2500    0.0000 C.3     1  UNL1        0.0000
      4 C          14.1244    0.7500    0.0000 C.3     1  UNL1        0.0000
      5 C          12.3923    0.7500    0.0000 C.3     1  UNL1        0.0000
      6 C          14.9904    0.2500    0.0000 C.3     1  UNL1        0.0000
      7 C          11.5263    0.2500    0.0000 C.3     1  UNL1        0.0000
      8 C          35.7750    0.2500    0.0000 C.3     1  UNL1        0.0000
      9 C          36.6410    0.7500    0.0000 C.3     1  UNL1        0.0000
     10 C          34.9090    0.7500    0.0000 C.3     1  UNL1        0.0000
     11 C          37.5070    0.2500    0.0000 C.3     1  UNL1        0.0000
     12 C          15.8564    0.7500    0.0000 C.3     1  UNL1        0.0000
     13 C          10.6603    0.7500    0.0000 C.3     1  UNL1        0.0000
     14 C          34.0429    0.2500    0.0000 C.3     1  UNL1        0.0000
     15 C          38.3731    0.7500    0.0000 C.3     1  UNL1        0.0000
     16 C          16.7224    0.2500    0.0000 C.3     1  UNL1        0.0000
     17 C          33.1769    0.7500    0.0000 C.3     1  UNL1        0.0000
     18 C           9.7942    0.2500    0.0000 C.3     1  UNL1        0.0000
     19 C          39.2391    0.2500    0.0000 C.3     1  UNL1        0.0000
     20 C          32.3109    0.2500    0.0000 C.3     1  UNL1        0.0000
     21 C          17.5885    0.7500    0.0000 C.3     1  UNL1        0.0000
     22 C           8.9282    0.7500    0.0000 C.3     1  UNL1        0.0000
     23 C          40.1051    0.7500    0.0000 C.3     1  UNL1        0.0000
     24 C          31.4449    0.7500    0.0000 C.3     1  UNL1        0.0000
     25 C          18.4545    0.2500    0.0000 C.3     1  UNL1        0.0000
     26 C           8.0622    0.2500    0.0000 C.3     1  UNL1        0.0000
     27 C          40.9711    0.2500    0.0000 C.3     1  UNL1        0.0000
     28 C          30.5788    0.2500    0.0000 C.3     1  UNL1        0.0000
     29 C          19.3205    0.7500    0.0000 C.3     1  UNL1        0.0000
     30 C           7.1962    0.7500    0.0000 C.3     1  UNL1        0.0000
     31 C          41.8372    0.7500    0.0000 C.3     1  UNL1        0.0000
     32 C          29.7128    0.7500    0.0000 C.3     1  UNL1        0.0000
     33 C          20.1865    0.2500    0.0000 C.3     1  UNL1        0.0000
     34 C           6.3301    0.2500    0.0000 C.3     1  UNL1        0.0000
     35 C          42.7032    0.2500    0.0000 C.3     1  UNL1        0.0000
     36 C          28.8468    0.2500    0.0000 C.3     1  UNL1        0.0000
     37 C          21.0526    0.7500    0.0000 C.3     1  UNL1        0.0001
     38 C           5.4641    0.7500    0.0000 C.3     1  UNL1        0.0000
     39 C          43.5692    0.7500    0.0000 C.3     1  UNL1        0.0000
     40 C          27.9808    0.7500    0.0000 C.3     1  UNL1        0.0006
     41 C          21.9186    0.2500    0.0000 C.3     1  UNL1        0.0038
     42 C           4.5981    0.2500    0.0000 C.3     1  UNL1        0.0000
     43 C          44.4352    0.2500    0.0000 C.3     1  UNL1        0.0000
     44 C          27.1147    0.2500    0.0000 C.3     1  UNL1        0.0116
     45 C          22.7846    0.7500    0.0000 C.3     1  UNL1        0.0474
     46 C           3.7321    0.7500    0.0000 C.3     1  UNL1        0.0000
     47 C          45.3013    0.7500    0.0000 C.3     1  UNL1        0.0000
     48 C          26.2487    0.7500    0.0000 C.3     1  UNL1        0.1096
     49 C          23.6506    0.2500    0.0000 C.3     1  UNL1        0.2084
     50 C           2.8660    0.2500    0.0000 C.3     1  UNL1        0.0000
     51 C          46.1673    0.2500    0.0000 C.3     1  UNL1        0.0000
     52 C          25.3827    0.2500    0.0000 C.2     1  UNL1        0.3170
     53 C           2.0000    0.7500    0.0000 C.3     1  UNL1        0.0000
     54 C          47.0333    0.7500    0.0000 C.3     1  UNL1        0.0000
@<TRIPOS>BOND
     1     1    49    1
     2     1    52    1
     3     2    52    2
     4     3     4    1
     5     3     5    1
     6     4     6    1
     7     5     7    1
     8     6    12    1
     9     7    13    1
    10     8     9    1
    11     8    10    1
    12     9    11    1
    13    10    14    1
    14    11    15    1
    15    12    16    1
    16    13    18    1
    17    14    17    1
    18    15    19    1
    19    16    21    1
    20    17    20    1
    21    18    22    1
    22    19    23    1
    23    20    24    1
    24    21    25    1
    25    22    26    1
    26    23    27    1
    27    24    28    1
    28    25    29    1
    29    26    30    1
    30    27    31    1
    31    28    32    1
    32    29    33    1
    33    30    34    1
    34    31    35    1
    35    32    36    1
    36    33    37    1
    37    34    38    1
    38    35    39    1
    39    36    40    1
    40    37    41    1
    41    38    42    1
    42    39    43    1
    43    40    44    1
    44    41    45    1
    45    42    46    1
    46    43    47    1
    47    44    48    1
    48    45    49    1
    49    46    50    1
    50    47    51    1
    51    48    52    1
    52    50    53    1
    53    51    54    1
