@<TRIPOS>MOLECULE
IMPHY007307
 39 40 0 0 0
SMALL
GASTEIGER

@<TRIPOS>ATOM
      1 C           5.2320   -0.2500    0.0000 C.3     1  UNL1       -0.0250
      2 C           6.0986   -0.7500    0.0000 C.3     1  UNL1       -0.0281
      3 C           5.2320   -1.2500    0.0000 C.3     1  UNL1       -0.0317
      4 C           4.3660    0.2500    0.0000 C.3     1  UNL1       -0.0080
      5 C           4.3660   -1.7500    0.0000 C.3     1  UNL1       -0.0486
      6 C           3.5000   -0.2500    0.0000 C.3     1  UNL1       -0.0076
      7 C           3.5000   -1.2500    0.0000 C.3     1  UNL1       -0.0434
      8 C           6.5986   -1.6160    0.0000 C.3     1  UNL1       -0.0593
      9 C           6.5986    0.1160    0.0000 C.3     1  UNL1       -0.0593
     10 C           4.3660    1.2500    0.0000 C.2     1  UNL1       -0.0755
     11 C           3.0000    0.6160    0.0000 C.3     1  UNL1       -0.0555
     12 C           2.5000   -0.2500    0.0000 C.2     1  UNL1       -0.0846
     13 C           5.2320    1.7500    0.0000 C.3     1  UNL1       -0.0437
     14 C           3.5000    1.7500    0.0000 C.2     1  UNL1       -0.0994
     15 C           2.0000   -1.1160    0.0000 C.2     1  UNL1       -0.1021
     16 H           5.6570    0.4862    0.0000 H       1  UNL1        0.0315
     17 H           5.6570   -1.9862    0.0000 H       1  UNL1        0.0309
     18 H           4.9030    0.5600    0.0000 H       1  UNL1        0.0357
     19 H           3.9675   -2.2250    0.0000 H       1  UNL1        0.0268
     20 H           4.7646   -2.2250    0.0000 H       1  UNL1        0.0268
     21 H           2.8894   -1.1423    0.0000 H       1  UNL1        0.0274
     22 H           3.2880   -1.8326    0.0000 H       1  UNL1        0.0274
     23 H           6.0616   -1.9260    0.0000 H       1  UNL1        0.0235
     24 H           6.9086   -2.1530    0.0000 H       1  UNL1        0.0235
     25 H           7.1355   -1.3060    0.0000 H       1  UNL1        0.0235
     26 H           7.1355   -0.1940    0.0000 H       1  UNL1        0.0235
     27 H           6.9086    0.6530    0.0000 H       1  UNL1        0.0235
     28 H           6.0616    0.4260    0.0000 H       1  UNL1        0.0235
     29 H           3.5369    0.9260    0.0000 H       1  UNL1        0.0238
     30 H           2.6900    1.1530    0.0000 H       1  UNL1        0.0238
     31 H           2.4631    0.3060    0.0000 H       1  UNL1        0.0238
     32 H           2.1900    0.2869    0.0000 H       1  UNL1        0.0572
     33 H           5.5420    1.2131    0.0000 H       1  UNL1        0.0274
     34 H           5.7690    2.0600    0.0000 H       1  UNL1        0.0274
     35 H           4.9220    2.2869    0.0000 H       1  UNL1        0.0274
     36 H           3.5000    2.3700    0.0000 H       1  UNL1        0.0534
     37 H           2.9631    1.4400    0.0000 H       1  UNL1        0.0534
     38 H           1.3800   -1.1160    0.0000 H       1  UNL1        0.0532
     39 H           2.3100   -1.6530    0.0000 H       1  UNL1        0.0532
@<TRIPOS>BOND
     1     1     2    1
     2     1     3    1
     3     1     4    1
     4     1    16    1
     5     2     3    1
     6     2     8    1
     7     2     9    1
     8     3     5    1
     9     3    17    1
    10     4     6    1
    11     4    10    1
    12     4    18    1
    13     5     7    1
    14     5    19    1
    15     5    20    1
    16     6     7    1
    17     6    11    1
    18     6    12    1
    19     7    21    1
    20     7    22    1
    21     8    23    1
    22     8    24    1
    23     8    25    1
    24     9    26    1
    25     9    27    1
    26     9    28    1
    27    10    13    1
    28    10    14    2
    29    11    29    1
    30    11    30    1
    31    11    31    1
    32    12    15    2
    33    12    32    1
    34    13    33    1
    35    13    34    1
    36    13    35    1
    37    14    36    1
    38    14    37    1
    39    15    38    1
    40    15    39    1
