@<TRIPOS>MOLECULE
IMPHY010986
 23 23 0 0 0
SMALL
GASTEIGER

@<TRIPOS>ATOM
      1 O           5.4641    2.1900    0.0000 O.3     1  UNL1       -0.3910
      2 C           3.7320   -0.8100    0.0000 C.ar    1  UNL1       -0.0223
      3 C           2.8660   -1.3100    0.0000 C.ar    1  UNL1       -0.0433
      4 C           4.5981   -1.3100    0.0000 C.ar    1  UNL1       -0.0543
      5 C           2.8660   -2.3100    0.0000 C.ar    1  UNL1       -0.0583
      6 C           3.7320    0.1900    0.0000 C.2     1  UNL1       -0.0561
      7 C           2.0000   -0.8100    0.0000 C.3     1  UNL1       -0.0392
      8 C           4.5981   -2.3100    0.0000 C.ar    1  UNL1       -0.0612
      9 C           3.7320   -2.8100    0.0000 C.ar    1  UNL1       -0.0615
     10 C           4.5981    0.6900    0.0000 C.2     1  UNL1       -0.0584
     11 C           4.5981    1.6900    0.0000 C.3     1  UNL1        0.0627
     12 H           5.1350   -1.0000    0.0000 H       1  UNL1        0.0624
     13 H           2.3291   -2.6200    0.0000 H       1  UNL1        0.0620
     14 H           3.1951    0.5000    0.0000 H       1  UNL1        0.0621
     15 H           2.3100   -0.2731    0.0000 H       1  UNL1        0.0278
     16 H           1.4631   -0.5000    0.0000 H       1  UNL1        0.0278
     17 H           1.6900   -1.3469    0.0000 H       1  UNL1        0.0278
     18 H           5.1350   -2.6200    0.0000 H       1  UNL1        0.0618
     19 H           3.7320   -3.4300    0.0000 H       1  UNL1        0.0618
     20 H           5.1350    0.3800    0.0000 H       1  UNL1        0.0595
     21 H           4.3860    2.2726    0.0000 H       1  UNL1        0.0601
     22 H           3.9875    1.5823    0.0000 H       1  UNL1        0.0601
     23 H           5.4641    2.8100    0.0000 H       1  UNL1        0.2098
@<TRIPOS>BOND
     1     1    11    1
     2     1    23    1
     3     2     3   ar
     4     2     4   ar
     5     2     6    1
     6     3     5   ar
     7     3     7    1
     8     4     8   ar
     9     4    12    1
    10     5     9   ar
    11     5    13    1
    12     6    10    2
    13     6    14    1
    14     7    15    1
    15     7    16    1
    16     7    17    1
    17     8     9   ar
    18     8    18    1
    19     9    19    1
    20    10    11    1
    21    10    20    1
    22    11    21    1
    23    11    22    1
