@<TRIPOS>MOLECULE
IMPHY011243
 99 104 0 0 0
SMALL
GASTEIGER

@<TRIPOS>ATOM
      1 O           8.5991   -0.8812    0.0000 O.3     1  UNL1       -0.3302
      2 O          14.6720   -1.3968    0.0000 O.3     1  UNL1       -0.3302
      3 O          10.3312   -0.8812    0.0000 O.3     1  UNL1       -0.4598
      4 O          13.8233    0.1131    0.0000 O.3     1  UNL1       -0.4515
      5 O           6.8671   -2.8812    0.0000 O.3     1  UNL1       -0.3864
      6 O           8.5991   -3.8812    0.0000 O.3     1  UNL1       -0.3864
      7 O          13.7771   -3.8866    0.0000 O.3     1  UNL1       -0.3864
      8 O          12.0567   -2.8666    0.0000 O.3     1  UNL1       -0.3864
      9 O          10.3312   -2.8812    0.0000 O.3     1  UNL1       -0.3829
     10 O          12.0799   -0.8668    0.0000 O.3     1  UNL1       -0.3829
     11 O           6.0010   -1.3812    0.0000 O.3     1  UNL1       -0.4616
     12 O          16.3923   -2.4168    0.0000 O.3     1  UNL1       -0.4589
     13 O          12.1145    2.1330    0.0000 O.2     1  UNL1       -0.1997
     14 O           8.5849    2.1980    0.0000 O.3     1  UNL1       -0.5063
     15 O           5.1350    0.1188    0.0000 O.2     1  UNL1       -0.2502
     16 O          17.2410   -3.9267    0.0000 O.2     1  UNL1       -0.2456
     17 O          16.4386    1.5830    0.0000 O.3     1  UNL1       -0.5033
     18 O          16.4617    3.5828    0.0000 O.3     1  UNL1       -0.5033
     19 O           2.5369   -1.3812    0.0000 O.3     1  UNL1       -0.4802
     20 O           3.4030    0.1188    0.0000 O.2     1  UNL1       -0.2504
     21 O          22.4715   -0.9870    0.0000 O.3     1  UNL1       -0.5068
     22 C           7.7331   -2.3812    0.0000 C.3     1  UNL1        0.1130
     23 C           8.5991   -2.8812    0.0000 C.3     1  UNL1        0.1152
     24 C          13.7887   -2.8867    0.0000 C.3     1  UNL1        0.1130
     25 C          12.9285   -2.3767    0.0000 C.3     1  UNL1        0.1152
     26 C           7.7331   -1.3812    0.0000 C.3     1  UNL1        0.1250
     27 C           9.4651   -2.3812    0.0000 C.3     1  UNL1        0.1454
     28 C          14.6604   -2.3967    0.0000 C.3     1  UNL1        0.1250
     29 C          12.9400   -1.3768    0.0000 C.3     1  UNL1        0.1454
     30 C           9.4651   -1.3812    0.0000 C.3     1  UNL1        0.2309
     31 C          13.8118   -0.8868    0.0000 C.3     1  UNL1        0.2313
     32 C           6.8671   -0.8812    0.0000 C.3     1  UNL1        0.1212
     33 C          15.5206   -2.9067    0.0000 C.3     1  UNL1        0.1215
     34 C          10.3312    0.1188    0.0000 C.ar    1  UNL1        0.1437
     35 C          12.9632    0.6231    0.0000 C.ar    1  UNL1        0.2288
     36 C          11.2312    0.6431    0.0000 C.ar    1  UNL1        0.1245
     37 C          12.0914    0.1331    0.0000 C.ar    1  UNL1        0.0093
     38 C          12.9747    1.6230    0.0000 C.ar    1  UNL1        0.4046
     39 C          11.2428    1.6431    0.0000 C.ar    1  UNL1        0.3708
     40 C           9.4311    0.6431    0.0000 C.ar    1  UNL1        0.0229
     41 C          10.3551    2.1880    0.0000 C.ar    1  UNL1        0.0847
     42 C           9.4431    1.6847    0.0000 C.ar    1  UNL1        0.1293
     43 C          13.8465    2.1130    0.0000 C.ar    1  UNL1        0.0865
     44 C           5.1350   -0.8812    0.0000 C.2     1  UNL1        0.3180
     45 C          17.2525   -2.9267    0.0000 C.2     1  UNL1        0.3320
     46 C           4.2690   -1.3812    0.0000 C.3     1  UNL1        0.1418
     47 C          14.7067    1.6030    0.0000 C.ar    1  UNL1       -0.0003
     48 C          13.8580    3.1129    0.0000 C.ar    1  UNL1       -0.0418
     49 C          18.1243   -2.4368    0.0000 C.2     1  UNL1        0.0231
     50 C          15.5784    2.0930    0.0000 C.ar    1  UNL1        0.1591
     51 C          14.7298    3.6029    0.0000 C.ar    1  UNL1       -0.0157
     52 C          15.5900    3.0929    0.0000 C.ar    1  UNL1        0.1583
     53 C           3.4030   -0.8812    0.0000 C.2     1  UNL1        0.3155
     54 C          18.9845   -2.9468    0.0000 C.2     1  UNL1       -0.0478
     55 C          19.8562   -2.4568    0.0000 C.ar    1  UNL1       -0.0246
     56 C          20.7164   -2.9668    0.0000 C.ar    1  UNL1       -0.0511
     57 C          19.8678   -1.4569    0.0000 C.ar    1  UNL1       -0.0511
     58 C          21.5882   -2.4768    0.0000 C.ar    1  UNL1       -0.0196
     59 C          20.7395   -0.9669    0.0000 C.ar    1  UNL1       -0.0196
     60 C          21.5997   -1.4769    0.0000 C.ar    1  UNL1        0.1169
     61 H           7.7331   -3.0012    0.0000 H       1  UNL1        0.0647
     62 H           9.1360   -3.1912    0.0000 H       1  UNL1        0.0648
     63 H          14.3220   -3.2029    0.0000 H       1  UNL1        0.0647
     64 H          12.3952   -2.0605    0.0000 H       1  UNL1        0.0648
     65 H           7.7331   -0.7612    0.0000 H       1  UNL1        0.0658
     66 H          10.0021   -2.0712    0.0000 H       1  UNL1        0.0683
     67 H          15.2009   -2.0930    0.0000 H       1  UNL1        0.0658
     68 H          12.9472   -0.7568    0.0000 H       1  UNL1        0.0683
     69 H           9.4651   -0.7612    0.0000 H       1  UNL1        0.1084
     70 H          14.3523   -0.5830    0.0000 H       1  UNL1        0.1084
     71 H           7.2656   -0.4062    0.0000 H       1  UNL1        0.0724
     72 H           6.4685   -0.4062    0.0000 H       1  UNL1        0.0724
     73 H          15.1166   -3.3770    0.0000 H       1  UNL1        0.0725
     74 H          15.9136   -3.3862    0.0000 H       1  UNL1        0.0725
     75 H           6.8671   -3.5012    0.0000 H       1  UNL1        0.2100
     76 H           8.0622   -4.1912    0.0000 H       1  UNL1        0.2100
     77 H          14.3104   -4.2028    0.0000 H       1  UNL1        0.2100
     78 H          12.0496   -3.4866    0.0000 H       1  UNL1        0.2100
     79 H          10.3312   -3.5012    0.0000 H       1  UNL1        0.2102
     80 H          11.5394   -1.1706    0.0000 H       1  UNL1        0.2102
     81 H          12.0842   -0.4868    0.0000 H       1  UNL1        0.0667
     82 H           8.8918    0.3373    0.0000 H       1  UNL1        0.0691
     83 H          10.3694    2.8079    0.0000 H       1  UNL1        0.0749
     84 H           3.8705   -1.8561    0.0000 H       1  UNL1        0.0493
     85 H           4.6675   -1.8561    0.0000 H       1  UNL1        0.0493
     86 H          14.6995    0.9830    0.0000 H       1  UNL1        0.0664
     87 H          13.3247    3.4291    0.0000 H       1  UNL1        0.0628
     88 H          18.1314   -1.8168    0.0000 H       1  UNL1        0.0689
     89 H           8.5945    2.8179    0.0000 H       1  UNL1        0.2921
     90 H          14.7370    4.2228    0.0000 H       1  UNL1        0.0655
     91 H          18.9773   -3.5667    0.0000 H       1  UNL1        0.0626
     92 H          16.9791    1.8868    0.0000 H       1  UNL1        0.2923
     93 H          16.4689    4.2028    0.0000 H       1  UNL1        0.2923
     94 H           2.0000   -1.0712    0.0000 H       1  UNL1        0.2951
     95 H          20.7092   -3.5868    0.0000 H       1  UNL1        0.0625
     96 H          19.3345   -1.1407    0.0000 H       1  UNL1        0.0625
     97 H          22.1215   -2.7930    0.0000 H       1  UNL1        0.0654
     98 H          20.7467   -0.3470    0.0000 H       1  UNL1        0.0654
     99 H          23.0048   -1.3031    0.0000 H       1  UNL1        0.2921
@<TRIPOS>UNITY_ATOM_ATTR
13 1
charge 1
@<TRIPOS>BOND
     1     1    26    1
     2     1    30    1
     3     2    28    1
     4     2    31    1
     5    30     3    1
     6     3    34    1
     7    31     4    1
     8     4    35    1
     9    22     5    1
    10     5    75    1
    11    23     6    1
    12     6    76    1
    13    24     7    1
    14     7    77    1
    15    25     8    1
    16     8    78    1
    17    27     9    1
    18     9    79    1
    19    29    10    1
    20    10    80    1
    21    11    32    1
    22    11    44    1
    23    12    33    1
    24    12    45    1
    25    13    38   ar
    26    13    39   ar
    27    14    42    1
    28    14    89    1
    29    15    44    2
    30    16    45    2
    31    17    50    1
    32    17    92    1
    33    18    52    1
    34    18    93    1
    35    19    53    1
    36    19    94    1
    37    20    53    2
    38    21    60    1
    39    21    99    1
    40    22    23    1
    41    22    26    1
    42    22    61    1
    43    23    27    1
    44    23    62    1
    45    24    25    1
    46    24    28    1
    47    24    63    1
    48    25    29    1
    49    25    64    1
    50    26    32    1
    51    26    65    1
    52    27    30    1
    53    27    66    1
    54    28    33    1
    55    28    67    1
    56    29    31    1
    57    29    68    1
    58    30    69    1
    59    31    70    1
    60    32    71    1
    61    32    72    1
    62    33    73    1
    63    33    74    1
    64    34    36   ar
    65    34    40   ar
    66    35    37   ar
    67    35    38   ar
    68    36    37   ar
    69    36    39   ar
    70    37    81    1
    71    38    43    1
    72    39    41   ar
    73    40    42   ar
    74    40    82    1
    75    41    42   ar
    76    41    83    1
    77    43    47   ar
    78    43    48   ar
    79    44    46    1
    80    45    49    1
    81    46    53    1
    82    46    84    1
    83    46    85    1
    84    47    50   ar
    85    47    86    1
    86    48    51   ar
    87    48    87    1
    88    49    54    2
    89    49    88    1
    90    50    52   ar
    91    51    52   ar
    92    51    90    1
    93    54    55    1
    94    54    91    1
    95    55    56   ar
    96    55    57   ar
    97    56    58   ar
    98    56    95    1
    99    57    59   ar
   100    57    96    1
   101    58    60   ar
   102    58    97    1
   103    59    60   ar
   104    59    98    1
