@<TRIPOS>MOLECULE
IMPHY013312
 88 92 0 0 0
SMALL
GASTEIGER

@<TRIPOS>ATOM
      1 O           5.1419   -0.2836    0.0000 O.3     1  UNL1       -0.3802
      2 O           4.9186    0.4504    0.0000 O.2     1  UNL1       -0.2943
      3 O          11.1246    2.0947    0.0000 O.3     1  UNL1       -0.4610
      4 O          10.2528    3.5914    0.0000 O.2     1  UNL1       -0.2512
      5 C           7.5167   -1.0496    0.0000 C.3     1  UNL1       -0.0199
      6 C           6.6507   -1.5496    0.0000 C.3     1  UNL1        0.0096
      7 C           7.5167   -0.0496    0.0000 C.3     1  UNL1       -0.0226
      8 C           8.4106    0.4850    0.0000 C.3     1  UNL1       -0.0248
      9 C           5.7847   -1.0496    0.0000 C.3     1  UNL1        0.1326
     10 C           4.8746   -1.5565    0.0000 C.3     1  UNL1        0.0012
     11 C           9.3167   -0.0288    0.0000 C.3     1  UNL1       -0.0268
     12 C           4.8666   -2.5981    0.0000 C.3     1  UNL1       -0.0261
     13 C           8.4106   -1.5843    0.0000 C.3     1  UNL1       -0.0465
     14 C           6.6667   -2.5912    0.0000 C.3     1  UNL1       -0.0436
     15 C           6.6507    0.4504    0.0000 C.3     1  UNL1        0.0126
     16 C           9.3167   -1.0705    0.0000 C.3     1  UNL1       -0.0486
     17 C           5.7687   -3.1189    0.0000 C.3     1  UNL1       -0.0467
     18 C          10.2605    0.5064    0.0000 C.3     1  UNL1        0.0055
     19 C           5.7847   -0.0496    0.0000 C.2     1  UNL1        0.1657
     20 C           8.3856    1.5697    0.0000 C.3     1  UNL1       -0.0437
     21 C           7.8588   -1.9893    0.0000 C.3     1  UNL1       -0.0587
     22 C           3.9478   -0.9924    0.0000 C.3     1  UNL1       -0.0415
     23 C           7.2935   -2.3157    0.0000 C.3     1  UNL1       -0.0560
     24 C           3.9312   -3.1478    0.0000 C.3     1  UNL1       -0.0468
     25 C           7.5408    0.9783    0.0000 C.3     1  UNL1       -0.0590
     26 C          10.2605    1.5914    0.0000 C.3     1  UNL1        0.1084
     27 C           2.9999   -1.5204    0.0000 C.3     1  UNL1       -0.0345
     28 C           9.3167    2.1266    0.0000 C.3     1  UNL1       -0.0146
     29 C           2.9916   -2.6053    0.0000 C.3     1  UNL1       -0.0474
     30 C           4.8589   -3.5981    0.0000 C.3     1  UNL1       -0.0592
     31 C          11.2605    0.5026    0.0000 C.3     1  UNL1       -0.0562
     32 C          10.7572   -0.3615    0.0000 C.3     1  UNL1       -0.0562
     33 C           2.0000   -1.5088    0.0000 C.3     1  UNL1       -0.0598
     34 C           2.5100   -0.6486    0.0000 C.3     1  UNL1       -0.0598
     35 C          11.1207    3.0947    0.0000 C.2     1  UNL1        0.3042
     36 C          11.9848    3.5981    0.0000 C.3     1  UNL1        0.0332
     37 H           8.2561   -0.4690    0.0000 H       1  UNL1        0.0316
     38 H           4.8910   -0.7066    0.0000 H       1  UNL1        0.0338
     39 H          10.0512   -0.4567    0.0000 H       1  UNL1        0.0312
     40 H           8.0060   -2.0541    0.0000 H       1  UNL1        0.0271
     41 H           8.8043   -2.0633    0.0000 H       1  UNL1        0.0271
     42 H           6.8848   -3.1716    0.0000 H       1  UNL1        0.0272
     43 H           7.2759   -2.4757    0.0000 H       1  UNL1        0.0272
     44 H           7.0492    0.9253    0.0000 H       1  UNL1        0.0346
     45 H           6.2522    0.9253    0.0000 H       1  UNL1        0.0346
     46 H           9.5258   -1.6542    0.0000 H       1  UNL1        0.0268
     47 H           9.9276   -0.9644    0.0000 H       1  UNL1        0.0268
     48 H           5.3714   -3.5949    0.0000 H       1  UNL1        0.0271
     49 H           6.1697   -3.5918    0.0000 H       1  UNL1        0.0271
     50 H           8.1631    2.1484    0.0000 H       1  UNL1        0.0272
     51 H           7.7773    1.4495    0.0000 H       1  UNL1        0.0272
     52 H           7.2762   -2.2014    0.0000 H       1  UNL1        0.0235
     53 H           8.0709   -2.5719    0.0000 H       1  UNL1        0.0235
     54 H           8.4414   -1.7772    0.0000 H       1  UNL1        0.0235
     55 H           4.3560   -0.5258    0.0000 H       1  UNL1        0.0274
     56 H           3.5579   -0.5104    0.0000 H       1  UNL1        0.0274
     57 H           6.8185   -2.7142    0.0000 H       1  UNL1        0.0236
     58 H           7.6920   -2.7906    0.0000 H       1  UNL1        0.0236
     59 H           7.7684   -1.9172    0.0000 H       1  UNL1        0.0236
     60 H           3.5339   -3.6238    0.0000 H       1  UNL1        0.0271
     61 H           4.3322   -3.6207    0.0000 H       1  UNL1        0.0271
     62 H           7.8466    1.5176    0.0000 H       1  UNL1        0.0235
     63 H           7.0015    1.2842    0.0000 H       1  UNL1        0.0235
     64 H           7.2349    0.4390    0.0000 H       1  UNL1        0.0235
     65 H          10.7980    1.2824    0.0000 H       1  UNL1        0.0739
     66 H           9.7103    2.6057    0.0000 H       1  UNL1        0.0301
     67 H           8.9121    2.5964    0.0000 H       1  UNL1        0.0301
     68 H           2.3816   -2.4945    0.0000 H       1  UNL1        0.0271
     69 H           2.7780   -3.1874    0.0000 H       1  UNL1        0.0271
     70 H           4.2389   -3.5933    0.0000 H       1  UNL1        0.0235
     71 H           4.8541   -4.2180    0.0000 H       1  UNL1        0.0235
     72 H           5.4789   -3.6028    0.0000 H       1  UNL1        0.0235
     73 H           4.5313   -0.3913    0.0000 H       1  UNL1        0.2108
     74 H          11.2581   -0.1174    0.0000 H       1  UNL1        0.0236
     75 H          11.8805    0.5002    0.0000 H       1  UNL1        0.0236
     76 H          11.2629    1.1226    0.0000 H       1  UNL1        0.0236
     77 H          10.2190   -0.6695    0.0000 H       1  UNL1        0.0236
     78 H          11.0651   -0.8997    0.0000 H       1  UNL1        0.0236
     79 H          11.2953   -0.0536    0.0000 H       1  UNL1        0.0236
     80 H           2.0072   -0.8888    0.0000 H       1  UNL1        0.0235
     81 H           1.3800   -1.5016    0.0000 H       1  UNL1        0.0235
     82 H           1.9928   -2.1288    0.0000 H       1  UNL1        0.0235
     83 H           3.0505   -0.3448    0.0000 H       1  UNL1        0.0235
     84 H           2.2062   -0.1081    0.0000 H       1  UNL1        0.0235
     85 H           1.9695   -0.9524    0.0000 H       1  UNL1        0.0235
     86 H          12.2969    3.0623    0.0000 H       1  UNL1        0.0342
     87 H          12.5206    3.9101    0.0000 H       1  UNL1        0.0342
     88 H          11.6728    4.1338    0.0000 H       1  UNL1        0.0342
@<TRIPOS>BOND
     1     9     1    1
     2     1    73    1
     3     2    19    2
     4    26     3    1
     5     3    35    1
     6     4    35    2
     7     5     6    1
     8     5     7    1
     9     5    13    1
    10     5    21    1
    11     6     9    1
    12     6    14    1
    13     6    23    1
    14     7     8    1
    15     7    15    1
    16     7    37    1
    17     8    11    1
    18     8    20    1
    19     8    25    1
    20     9    10    1
    21     9    19    1
    22    10    12    1
    23    10    22    1
    24    10    38    1
    25    11    16    1
    26    11    18    1
    27    11    39    1
    28    12    17    1
    29    12    24    1
    30    12    30    1
    31    13    16    1
    32    13    40    1
    33    13    41    1
    34    14    17    1
    35    14    42    1
    36    14    43    1
    37    15    19    1
    38    15    44    1
    39    15    45    1
    40    16    46    1
    41    16    47    1
    42    17    48    1
    43    17    49    1
    44    18    26    1
    45    18    31    1
    46    18    32    1
    47    20    28    1
    48    20    50    1
    49    20    51    1
    50    21    52    1
    51    21    53    1
    52    21    54    1
    53    22    27    1
    54    22    55    1
    55    22    56    1
    56    23    57    1
    57    23    58    1
    58    23    59    1
    59    24    29    1
    60    24    60    1
    61    24    61    1
    62    25    62    1
    63    25    63    1
    64    25    64    1
    65    26    28    1
    66    26    65    1
    67    27    29    1
    68    27    33    1
    69    27    34    1
    70    28    66    1
    71    28    67    1
    72    29    68    1
    73    29    69    1
    74    30    70    1
    75    30    71    1
    76    30    72    1
    77    31    74    1
    78    31    75    1
    79    31    76    1
    80    32    77    1
    81    32    78    1
    82    32    79    1
    83    33    80    1
    84    33    81    1
    85    33    82    1
    86    34    83    1
    87    34    84    1
    88    34    85    1
    89    35    36    1
    90    36    86    1
    91    36    87    1
    92    36    88    1
