@<TRIPOS>MOLECULE
IMPHY003558
 79 83 0 0 0
SMALL
GASTEIGER

@<TRIPOS>ATOM
      1 O           2.0000   -2.5933    0.0000 O.2     1  UNL1       -0.2968
      2 C           6.5271   -1.0410    0.0000 C.3     1  UNL1       -0.0194
      3 C           5.6610   -0.5410    0.0000 C.3     1  UNL1       -0.0257
      4 C           7.3931   -0.5410    0.0000 C.3     1  UNL1       -0.0051
      5 C           4.7510   -1.0478    0.0000 C.3     1  UNL1       -0.0243
      6 C           4.7430   -2.0894    0.0000 C.3     1  UNL1       -0.0235
      7 C           6.5431   -2.0825    0.0000 C.3     1  UNL1       -0.0463
      8 C           7.3931    0.4590    0.0000 C.2     1  UNL1       -0.0634
      9 C           8.2870    0.9937    0.0000 C.3     1  UNL1       -0.0135
     10 C           9.1931    0.4799    0.0000 C.3     1  UNL1       -0.0255
     11 C           8.2870   -1.0756    0.0000 C.3     1  UNL1       -0.0429
     12 C           5.6451   -2.6102    0.0000 C.3     1  UNL1       -0.0483
     13 C           5.6610    0.4590    0.0000 C.3     1  UNL1       -0.0306
     14 C           3.8076   -2.6391    0.0000 C.3     1  UNL1        0.0267
     15 C           9.1931   -0.5618    0.0000 C.3     1  UNL1       -0.0463
     16 C           3.8242   -0.4837    0.0000 C.3     1  UNL1       -0.0404
     17 C           7.1698   -1.8070    0.0000 C.3     1  UNL1       -0.0585
     18 C           6.5271    0.9590    0.0000 C.2     1  UNL1       -0.0836
     19 C           7.7352   -1.4806    0.0000 C.3     1  UNL1       -0.0553
     20 C           8.2619    2.0784    0.0000 C.3     1  UNL1       -0.0408
     21 C           4.7587   -0.0478    0.0000 C.3     1  UNL1       -0.0590
     22 C          10.1369    1.0151    0.0000 C.3     1  UNL1       -0.0466
     23 C           9.1931    2.6353    0.0000 C.3     1  UNL1       -0.0343
     24 C           2.8763   -1.0117    0.0000 C.3     1  UNL1        0.0069
     25 C          10.1369    2.1001    0.0000 C.3     1  UNL1       -0.0473
     26 C           2.8680   -2.0966    0.0000 C.2     1  UNL1        0.1392
     27 C          10.0629   -0.0135    0.0000 C.3     1  UNL1       -0.0590
     28 C           3.3109   -3.5071    0.0000 C.3     1  UNL1       -0.0528
     29 C           4.3109   -3.5032    0.0000 C.3     1  UNL1       -0.0528
     30 C           9.6830    3.5071    0.0000 C.3     1  UNL1       -0.0598
     31 C           8.6831    3.4955    0.0000 C.3     1  UNL1       -0.0598
     32 H           6.3972   -0.1160    0.0000 H       1  UNL1        0.0315
     33 H           4.7463   -2.9394    0.0000 H       1  UNL1        0.0315
     34 H           6.7612   -2.6629    0.0000 H       1  UNL1        0.0271
     35 H           7.1523   -1.9670    0.0000 H       1  UNL1        0.0271
     36 H           9.0165    1.4300    0.0000 H       1  UNL1        0.0351
     37 H           7.8824   -1.5454    0.0000 H       1  UNL1        0.0274
     38 H           8.6806   -1.5546    0.0000 H       1  UNL1        0.0274
     39 H           5.2478   -3.0862    0.0000 H       1  UNL1        0.0269
     40 H           6.0460   -3.0831    0.0000 H       1  UNL1        0.0269
     41 H           5.4490    1.0416    0.0000 H       1  UNL1        0.0310
     42 H           5.0504    0.3514    0.0000 H       1  UNL1        0.0310
     43 H           9.4022   -1.1455    0.0000 H       1  UNL1        0.0271
     44 H           9.8040   -0.4557    0.0000 H       1  UNL1        0.0271
     45 H           4.2324   -0.0171    0.0000 H       1  UNL1        0.0275
     46 H           3.4343   -0.0017    0.0000 H       1  UNL1        0.0275
     47 H           6.6949   -2.2055    0.0000 H       1  UNL1        0.0235
     48 H           7.5684   -2.2820    0.0000 H       1  UNL1        0.0235
     49 H           7.6448   -1.4085    0.0000 H       1  UNL1        0.0235
     50 H           6.5271    1.5790    0.0000 H       1  UNL1        0.0572
     51 H           7.1526   -1.6927    0.0000 H       1  UNL1        0.0238
     52 H           7.9473   -2.0632    0.0000 H       1  UNL1        0.0238
     53 H           8.3178   -1.2685    0.0000 H       1  UNL1        0.0238
     54 H           8.0394    2.6571    0.0000 H       1  UNL1        0.0276
     55 H           7.6537    1.9582    0.0000 H       1  UNL1        0.0276
     56 H           5.3787   -0.0526    0.0000 H       1  UNL1        0.0235
     57 H           4.7635    0.5721    0.0000 H       1  UNL1        0.0235
     58 H           4.1388   -0.0431    0.0000 H       1  UNL1        0.0235
     59 H          10.3459    0.4314    0.0000 H       1  UNL1        0.0271
     60 H          10.7477    1.1212    0.0000 H       1  UNL1        0.0271
     61 H           2.6718   -0.4264    0.0000 H       1  UNL1        0.0342
     62 H           2.2647   -1.1131    0.0000 H       1  UNL1        0.0342
     63 H          10.7477    1.9940    0.0000 H       1  UNL1        0.0271
     64 H          10.3459    2.6838    0.0000 H       1  UNL1        0.0271
     65 H           9.7571   -0.5528    0.0000 H       1  UNL1        0.0235
     66 H          10.6023   -0.3193    0.0000 H       1  UNL1        0.0235
     67 H          10.3688    0.5259    0.0000 H       1  UNL1        0.0235
     68 H           2.7728   -3.1992    0.0000 H       1  UNL1        0.0239
     69 H           3.0030   -4.0452    0.0000 H       1  UNL1        0.0239
     70 H           3.8490   -3.8150    0.0000 H       1  UNL1        0.0239
     71 H           3.7752   -3.8153    0.0000 H       1  UNL1        0.0239
     72 H           4.6230   -4.0390    0.0000 H       1  UNL1        0.0239
     73 H           4.8466   -3.1912    0.0000 H       1  UNL1        0.0239
     74 H          10.2235    3.2033    0.0000 H       1  UNL1        0.0235
     75 H           9.9868    4.0476    0.0000 H       1  UNL1        0.0235
     76 H           9.1426    3.8108    0.0000 H       1  UNL1        0.0235
     77 H           9.2164    3.8117    0.0000 H       1  UNL1        0.0235
     78 H           8.3669    4.0288    0.0000 H       1  UNL1        0.0235
     79 H           8.1498    3.1793    0.0000 H       1  UNL1        0.0235
@<TRIPOS>BOND
     1     1    26    2
     2     2     3    1
     3     2     4    1
     4     2     7    1
     5     2    17    1
     6     3     5    1
     7     3    13    1
     8     3    32    1
     9     4     8    1
    10     4    11    1
    11     4    19    1
    12     5     6    1
    13     5    16    1
    14     5    21    1
    15     6    12    1
    16     6    14    1
    17     6    33    1
    18     7    12    1
    19     7    34    1
    20     7    35    1
    21     8     9    1
    22     8    18    2
    23     9    10    1
    24     9    20    1
    25     9    36    1
    26    10    15    1
    27    10    22    1
    28    10    27    1
    29    11    15    1
    30    11    37    1
    31    11    38    1
    32    12    39    1
    33    12    40    1
    34    13    18    1
    35    13    41    1
    36    13    42    1
    37    14    26    1
    38    14    28    1
    39    14    29    1
    40    15    43    1
    41    15    44    1
    42    16    24    1
    43    16    45    1
    44    16    46    1
    45    17    47    1
    46    17    48    1
    47    17    49    1
    48    18    50    1
    49    19    51    1
    50    19    52    1
    51    19    53    1
    52    20    23    1
    53    20    54    1
    54    20    55    1
    55    21    56    1
    56    21    57    1
    57    21    58    1
    58    22    25    1
    59    22    59    1
    60    22    60    1
    61    23    25    1
    62    23    30    1
    63    23    31    1
    64    24    26    1
    65    24    61    1
    66    24    62    1
    67    25    63    1
    68    25    64    1
    69    27    65    1
    70    27    66    1
    71    27    67    1
    72    28    68    1
    73    28    69    1
    74    28    70    1
    75    29    71    1
    76    29    72    1
    77    29    73    1
    78    30    74    1
    79    30    75    1
    80    30    76    1
    81    31    77    1
    82    31    78    1
    83    31    79    1
