@<TRIPOS>MOLECULE
IMPHY005284
 54 56 0 0 0
SMALL
GASTEIGER

@<TRIPOS>ATOM
      1 CL          9.5274   -1.2605    0.0000 Cl      1  UNL1        0.0000
      2 O           4.2690    1.7290    0.0000 O.3     2  UNL2       -0.3397
      3 O           6.0010   -0.2710    0.0000 O.3     2  UNL2       -0.4807
      4 O           4.2690   -1.2710    0.0000 O.3     2  UNL2       -0.3853
      5 O           2.5369   -0.2710    0.0000 O.3     2  UNL2       -0.3864
      6 O           6.0010    1.7290    0.0000 O.3     2  UNL2       -0.3641
      7 O           2.5369    2.7290    0.0000 O.3     2  UNL2       -0.3924
      8 O           9.5312   -0.2605    0.0000 O.2     2  UNL2       -0.1997
      9 O           7.7945    2.7808    0.0000 O.3     2  UNL2       -0.5057
     10 O          11.2710    1.7328    0.0000 O.3     2  UNL2       -0.4995
     11 O          12.1197   -2.7705    0.0000 O.3     2  UNL2       -0.5033
     12 O          13.8555   -1.7772    0.0000 O.3     2  UNL2       -0.5033
     13 C           4.2690   -0.2710    0.0000 C.3     2  UNL2        0.1250
     14 C           3.4030    0.2290    0.0000 C.3     2  UNL2        0.1130
     15 C           5.1350    0.2290    0.0000 C.3     2  UNL2        0.1786
     16 C           3.4030    1.2290    0.0000 C.3     2  UNL2        0.1131
     17 C           5.1350    1.2290    0.0000 C.3     2  UNL2        0.1967
     18 C           2.5369    1.7290    0.0000 C.3     2  UNL2        0.0730
     19 C           6.8671    0.2290    0.0000 C.ar    2  UNL2        0.1337
     20 C           7.7711   -0.2883    0.0000 C.ar    2  UNL2        0.0850
     21 C           6.8711    1.2706    0.0000 C.ar    2  UNL2        0.0228
     22 C           8.6671    0.2429    0.0000 C.ar    2  UNL2        0.3708
     23 C           8.6710    1.2429    0.0000 C.ar    2  UNL2        0.1241
     24 C           7.7791    1.7810    0.0000 C.ar    2  UNL2        0.1366
     25 C           9.5389    1.7395    0.0000 C.ar    2  UNL2        0.0090
     26 C          10.3992    0.2362    0.0000 C.ar    2  UNL2        0.4043
     27 C          10.4030    1.2362    0.0000 C.ar    2  UNL2        0.2238
     28 C          11.2633   -0.2671    0.0000 C.ar    2  UNL2        0.0865
     29 C          11.2594   -1.2671    0.0000 C.ar    2  UNL2       -0.0003
     30 C          12.1312    0.2295    0.0000 C.ar    2  UNL2       -0.0418
     31 C          12.1235   -1.7705    0.0000 C.ar    2  UNL2        0.1591
     32 C          12.9953   -0.2738    0.0000 C.ar    2  UNL2       -0.0157
     33 C          12.9915   -1.2738    0.0000 C.ar    2  UNL2        0.1583
     34 H           4.8059   -0.5810    0.0000 H       2  UNL2        0.0659
     35 H           3.4030   -0.3910    0.0000 H       2  UNL2        0.0647
     36 H           5.6720    0.5390    0.0000 H       2  UNL2        0.0812
     37 H           3.4030    1.8490    0.0000 H       2  UNL2        0.0647
     38 H           5.1350    1.8490    0.0000 H       2  UNL2        0.0947
     39 H           1.9264    1.8366    0.0000 H       2  UNL2        0.0584
     40 H           2.3249    1.1464    0.0000 H       2  UNL2        0.0584
     41 H           3.7320   -1.5810    0.0000 H       2  UNL2        0.2101
     42 H           2.0000    0.0390    0.0000 H       2  UNL2        0.2100
     43 H           6.0010    2.3490    0.0000 H       2  UNL2        0.2126
     44 H           2.0000    3.0390    0.0000 H       2  UNL2        0.2095
     45 H           7.7759   -0.9083    0.0000 H       2  UNL2        0.0749
     46 H           6.3366    1.5847    0.0000 H       2  UNL2        0.0691
     47 H           9.5413    2.3595    0.0000 H       2  UNL2        0.0667
     48 H           8.3362    3.0825    0.0000 H       2  UNL2        0.2922
     49 H          10.7213   -1.5751    0.0000 H       2  UNL2        0.0664
     50 H          12.1336    0.8495    0.0000 H       2  UNL2        0.0628
     51 H          11.2734    2.3528    0.0000 H       2  UNL2        0.2925
     52 H          13.5334    0.0341    0.0000 H       2  UNL2        0.0655
     53 H          12.6554   -3.0825    0.0000 H       2  UNL2        0.2923
     54 H          14.3937   -1.4692    0.0000 H       2  UNL2        0.2923
@<TRIPOS>UNITY_ATOM_ATTR
1 1
charge -1
8 1
charge 1
@<TRIPOS>BOND
     1     2    16    1
     2     2    17    1
     3    15     3    1
     4     3    19    1
     5    13     4    1
     6     4    41    1
     7    14     5    1
     8     5    42    1
     9    17     6    1
    10     6    43    1
    11     7    18    1
    12     7    44    1
    13     8    22   ar
    14     8    26   ar
    15     9    24    1
    16     9    48    1
    17    10    27    1
    18    10    51    1
    19    11    31    1
    20    11    53    1
    21    12    33    1
    22    12    54    1
    23    13    14    1
    24    13    15    1
    25    13    34    1
    26    14    16    1
    27    14    35    1
    28    15    17    1
    29    15    36    1
    30    16    18    1
    31    16    37    1
    32    17    38    1
    33    18    39    1
    34    18    40    1
    35    19    20   ar
    36    19    21   ar
    37    20    22   ar
    38    20    45    1
    39    21    24   ar
    40    21    46    1
    41    22    23   ar
    42    23    24   ar
    43    23    25   ar
    44    25    27   ar
    45    25    47    1
    46    26    27   ar
    47    26    28    1
    48    28    29   ar
    49    28    30   ar
    50    29    31   ar
    51    29    49    1
    52    30    32   ar
    53    30    50    1
    54    31    33   ar
    55    32    33   ar
    56    32    52    1
