@<TRIPOS>MOLECULE
IMPHY014139
 91 97 0 0 0
SMALL
GASTEIGER

@<TRIPOS>ATOM
      1 O           8.9406   -1.5813    0.0000 O.3     1  UNL1       -0.3578
      2 O          13.0804   -0.6763    0.0000 O.3     1  UNL1       -0.3329
      3 O           6.4300   -1.5802    0.0000 O.3     1  UNL1       -0.3724
      4 O           8.1683   -2.1158    0.0000 O.3     1  UNL1       -0.3886
      5 O          11.6980   -2.7560    0.0000 O.3     1  UNL1       -0.3778
      6 O          14.1378   -2.2516    0.0000 O.2     1  UNL1       -0.4680
      7 O           7.5677    2.4562    0.0000 O.3     1  UNL1       -0.3911
      8 O           8.5574    2.3313    0.0000 O.3     1  UNL1       -0.3803
      9 O           4.3537    0.9726    0.0000 O.3     1  UNL1       -0.4568
     10 O           4.0741   -0.2223    0.0000 O.3     1  UNL1       -0.4674
     11 O           5.0839   -1.6295    0.0000 O.2     1  UNL1       -0.2500
     12 O           9.9735    2.8438    0.0000 O.3     1  UNL1       -0.4661
     13 O          10.7055    1.2741    0.0000 O.2     1  UNL1       -0.2479
     14 O           4.4980    2.6986    0.0000 O.2     1  UNL1       -0.2453
     15 C           9.6482   -0.8740    0.0000 C.3     1  UNL1        0.1333
     16 C           9.9070   -1.8400    0.0000 C.3     1  UNL1        0.1055
     17 C           8.8291   -0.3004    0.0000 C.3     1  UNL1        0.0368
     18 C          11.3060   -1.3311    0.0000 C.3     1  UNL1        0.0316
     19 C          11.0472   -0.3652    0.0000 C.3     1  UNL1        0.0955
     20 C           8.4064    0.6059    0.0000 C.3     1  UNL1        0.0142
     21 C           7.4102    0.6930    0.0000 C.3     1  UNL1        0.0068
     22 C          11.7838    0.6174    0.0000 C.3     1  UNL1       -0.0149
     23 C           8.2555   -1.1196    0.0000 C.3     1  UNL1        0.0901
     24 C           6.8367   -0.1261    0.0000 C.3     1  UNL1        0.0172
     25 C           7.2593   -1.0324    0.0000 C.3     1  UNL1        0.0897
     26 C          12.5270   -2.1968    0.0000 C.3     1  UNL1        0.1545
     27 C           5.7977   -0.0514    0.0000 C.3     1  UNL1        0.1333
     28 C          10.1659   -2.8059    0.0000 C.3     1  UNL1       -0.0326
     29 C           9.7354    0.1222    0.0000 C.3     1  UNL1       -0.0539
     30 C           6.9846    1.6437    0.0000 C.3     1  UNL1        0.0647
     31 C          13.3560   -1.6376    0.0000 C.3     1  UNL1        0.2342
     32 C           8.9800    1.4250    0.0000 C.3     1  UNL1        0.1556
     33 C           5.3503    0.8893    0.0000 C.3     1  UNL1        0.1239
     34 C           7.9838    1.5122    0.0000 C.3     1  UNL1       -0.0565
     35 C           5.6049   -1.0263    0.0000 C.3     1  UNL1        0.0677
     36 C           5.9477    1.7425    0.0000 C.3     1  UNL1        0.0121
     37 C          12.8035   -3.1516    0.0000 C.2     1  UNL1       -0.0121
     38 C           4.9853   -0.6344    0.0000 C.2     1  UNL1        0.3193
     39 C           9.8863    1.8477    0.0000 C.2     1  UNL1        0.3361
     40 C          13.7970   -3.1855    0.0000 C.2     1  UNL1        0.0870
     41 C           3.9276    1.8772    0.0000 C.2     1  UNL1        0.3349
     42 C           3.2617   -0.8053    0.0000 C.3     1  UNL1        0.0817
     43 C          10.8798    3.2664    0.0000 C.3     1  UNL1        0.0817
     44 C           2.9311    1.9606    0.0000 C.2     1  UNL1        0.0293
     45 C           2.3607    1.1392    0.0000 C.3     1  UNL1       -0.0333
     46 C           2.5050    2.8652    0.0000 C.2     1  UNL1       -0.0774
     47 C           1.5085    2.9486    0.0000 C.3     1  UNL1       -0.0461
     48 H          11.5260   -2.1522    0.0000 H       1  UNL1        0.0363
     49 H          10.8272    0.4558    0.0000 H       1  UNL1        0.0627
     50 H           7.9189   -0.0904    0.0000 H       1  UNL1        0.0344
     51 H          11.4660    1.1498    0.0000 H       1  UNL1        0.0296
     52 H          12.3969    0.7094    0.0000 H       1  UNL1        0.0296
     53 H           8.8381   -1.3317    0.0000 H       1  UNL1        0.0626
     54 H           6.4774    0.6442    0.0000 H       1  UNL1        0.0345
     55 H           7.4681   -1.8564    0.0000 H       1  UNL1        0.0625
     56 H          10.7647   -2.6454    0.0000 H       1  UNL1        0.0258
     57 H          10.3263   -3.4048    0.0000 H       1  UNL1        0.0258
     58 H           9.5670   -2.9663    0.0000 H       1  UNL1        0.0258
     59 H           9.4734    0.6841    0.0000 H       1  UNL1        0.0237
     60 H          10.2973    0.3842    0.0000 H       1  UNL1        0.0237
     61 H           9.9974   -0.4397    0.0000 H       1  UNL1        0.0237
     62 H           6.7280    2.2081    0.0000 H       1  UNL1        0.0600
     63 H          14.0607   -1.1623    0.0000 H       1  UNL1        0.1090
     64 H           8.3624    1.4790    0.0000 H       1  UNL1        0.0713
     65 H           5.0872    1.4507    0.0000 H       1  UNL1        0.0747
     66 H           7.4760    1.8678    0.0000 H       1  UNL1        0.0236
     67 H           8.3394    2.0200    0.0000 H       1  UNL1        0.0236
     68 H           8.4917    1.1566    0.0000 H       1  UNL1        0.0236
     69 H           5.3301   -1.5821    0.0000 H       1  UNL1        0.0572
     70 H           5.0178   -0.8270    0.0000 H       1  UNL1        0.0572
     71 H           5.3865    2.0060    0.0000 H       1  UNL1        0.0326
     72 H           6.1112    2.3406    0.0000 H       1  UNL1        0.0326
     73 H          12.4226   -3.6409    0.0000 H       1  UNL1        0.0633
     74 H           7.6063   -2.3778    0.0000 H       1  UNL1        0.2099
     75 H          11.7412   -3.3745    0.0000 H       1  UNL1        0.2109
     76 H          14.1437   -3.6995    0.0000 H       1  UNL1        0.1022
     77 H           7.3122    3.0211    0.0000 H       1  UNL1        0.2098
     78 H           8.9130    2.8392    0.0000 H       1  UNL1        0.2105
     79 H           3.6231   -1.3090    0.0000 H       1  UNL1        0.0661
     80 H           2.7579   -1.1667    0.0000 H       1  UNL1        0.0661
     81 H           2.9002   -0.3015    0.0000 H       1  UNL1        0.0661
     82 H          10.6178    3.8284    0.0000 H       1  UNL1        0.0661
     83 H          11.4417    3.5285    0.0000 H       1  UNL1        0.0661
     84 H          11.1418    2.7045    0.0000 H       1  UNL1        0.0661
     85 H           2.8699    0.7855    0.0000 H       1  UNL1        0.0280
     86 H           2.0070    0.6300    0.0000 H       1  UNL1        0.0280
     87 H           1.8514    1.4929    0.0000 H       1  UNL1        0.0280
     88 H           2.8586    3.3745    0.0000 H       1  UNL1        0.0574
     89 H           1.4568    2.3307    0.0000 H       1  UNL1        0.0272
     90 H           0.8906    3.0002    0.0000 H       1  UNL1        0.0272
     91 H           1.5601    3.5664    0.0000 H       1  UNL1        0.0272
@<TRIPOS>BOND
     1    15     1    1
     2     1    16    1
     3     2    19    1
     4     2    31    1
     5     3    25    1
     6     3    35    1
     7    23     4    1
     8     4    74    1
     9    26     5    1
    10     5    75    1
    11     6    31    1
    12     6    40    1
    13    30     7    1
    14     7    77    1
    15    32     8    1
    16     8    78    1
    17    33     9    1
    18     9    41    1
    19    10    38    1
    20    10    42    1
    21    11    38    2
    22    12    39    1
    23    12    43    1
    24    13    39    2
    25    14    41    2
    26    15    16    1
    27    15    17    1
    28    15    19    1
    29    16    18    1
    30    16    28    1
    31    17    20    1
    32    17    23    1
    33    17    29    1
    34    18    22    1
    35    18    26    1
    36    18    48    1
    37    19    22    1
    38    19    49    1
    39    20    21    1
    40    20    32    1
    41    20    50    1
    42    21    24    1
    43    21    30    1
    44    21    34    1
    45    22    51    1
    46    22    52    1
    47    23    25    1
    48    23    53    1
    49    24    25    1
    50    24    27    1
    51    24    54    1
    52    25    55    1
    53    26    31    1
    54    26    37    1
    55    27    33    1
    56    27    35    1
    57    27    38    1
    58    28    56    1
    59    28    57    1
    60    28    58    1
    61    29    59    1
    62    29    60    1
    63    29    61    1
    64    30    36    1
    65    30    62    1
    66    31    63    1
    67    32    39    1
    68    32    64    1
    69    33    36    1
    70    33    65    1
    71    34    66    1
    72    34    67    1
    73    34    68    1
    74    35    69    1
    75    35    70    1
    76    36    71    1
    77    36    72    1
    78    37    40    2
    79    37    73    1
    80    40    76    1
    81    41    44    1
    82    42    79    1
    83    42    80    1
    84    42    81    1
    85    43    82    1
    86    43    83    1
    87    43    84    1
    88    44    45    1
    89    44    46    2
    90    45    85    1
    91    45    86    1
    92    45    87    1
    93    46    47    1
    94    46    88    1
    95    47    89    1
    96    47    90    1
    97    47    91    1
