@<TRIPOS>MOLECULE
IMPHY014424
 69 72 0 0 0
SMALL
GASTEIGER

@<TRIPOS>ATOM
      1 O           6.8671   -1.1988    0.0000 O.3     1  UNL1       -0.3093
      2 O           6.0010    0.3012    0.0000 O.2     1  UNL1       -0.4699
      3 O           8.9900    2.5565    0.0000 O.3     1  UNL1       -0.4534
      4 O           5.1350   -1.1988    0.0000 O.3     1  UNL1       -0.3404
      5 O           6.8671   -3.1988    0.0000 O.3     1  UNL1       -0.3841
      6 O           5.1350   -4.1988    0.0000 O.3     1  UNL1       -0.3864
      7 O           3.4030   -3.1988    0.0000 O.3     1  UNL1       -0.3865
      8 O           9.9685   -1.1602    0.0000 O.3     1  UNL1       -0.3907
      9 O           6.0010    3.3012    0.0000 O.3     1  UNL1       -0.4646
     10 O           7.7331    3.3012    0.0000 O.2     1  UNL1       -0.2452
     11 O           2.5369   -1.6988    0.0000 O.3     1  UNL1       -0.3924
     12 O          10.6363    2.0184    0.0000 O.2     1  UNL1       -0.2456
     13 O          13.9290    0.9422    0.0000 O.3     1  UNL1       -0.5068
     14 C           7.7331    0.3012    0.0000 C.3     1  UNL1        0.0557
     15 C           7.7331    1.3012    0.0000 C.3     1  UNL1        0.0468
     16 C           8.6793    1.6060    0.0000 C.3     1  UNL1        0.1297
     17 C           6.8671   -0.1988    0.0000 C.3     1  UNL1        0.2107
     18 C           8.6793   -0.0035    0.0000 C.2     1  UNL1       -0.0353
     19 C           9.2629    0.8012    0.0000 C.2     1  UNL1       -0.0415
     20 C           6.8671    1.8012    0.0000 C.2     1  UNL1        0.0784
     21 C           6.0010   -1.6988    0.0000 C.3     1  UNL1        0.1918
     22 C           6.0010   -2.6988    0.0000 C.3     1  UNL1        0.1342
     23 C           5.1350   -3.1988    0.0000 C.3     1  UNL1        0.1141
     24 C           8.9900   -0.9540    0.0000 C.3     1  UNL1        0.0659
     25 C           4.2690   -2.6988    0.0000 C.3     1  UNL1        0.1119
     26 C           4.2690   -1.6988    0.0000 C.3     1  UNL1        0.1130
     27 C           6.0010    1.3012    0.0000 C.2     1  UNL1        0.0983
     28 C           6.8671    2.8012    0.0000 C.2     1  UNL1        0.3382
     29 C           3.4030   -1.1988    0.0000 C.3     1  UNL1        0.0730
     30 C           9.9685    2.7627    0.0000 C.2     1  UNL1        0.3325
     31 C          10.2791    3.7132    0.0000 C.2     1  UNL1        0.0231
     32 C           6.0010    4.3012    0.0000 C.3     1  UNL1        0.0820
     33 C          11.2576    3.9194    0.0000 C.2     1  UNL1       -0.0478
     34 C          11.9255    3.1751    0.0000 C.ar    1  UNL1       -0.0246
     35 C          12.9040    3.3814    0.0000 C.ar    1  UNL1       -0.0511
     36 C          11.6148    2.2246    0.0000 C.ar    1  UNL1       -0.0511
     37 C          13.5718    2.6371    0.0000 C.ar    1  UNL1       -0.0196
     38 C          12.2827    1.4803    0.0000 C.ar    1  UNL1       -0.0196
     39 C          13.2612    1.6865    0.0000 C.ar    1  UNL1        0.1169
     40 H           7.8230   -0.5440    0.0000 H       1  UNL1        0.0414
     41 H           7.8230    2.1465    0.0000 H       1  UNL1        0.0399
     42 H           8.2418    2.0453    0.0000 H       1  UNL1        0.0786
     43 H           7.4040   -0.5088    0.0000 H       1  UNL1        0.1062
     44 H           9.8829    0.8012    0.0000 H       1  UNL1        0.0609
     45 H           6.0010   -1.0788    0.0000 H       1  UNL1        0.0939
     46 H           6.0010   -3.3188    0.0000 H       1  UNL1        0.0671
     47 H           4.5981   -3.5088    0.0000 H       1  UNL1        0.0648
     48 H           8.3762   -1.0414    0.0000 H       1  UNL1        0.0604
     49 H           8.9694   -1.5737    0.0000 H       1  UNL1        0.0604
     50 H           4.2690   -3.3188    0.0000 H       1  UNL1        0.0647
     51 H           4.2690   -1.0788    0.0000 H       1  UNL1        0.0647
     52 H           5.4641    1.6112    0.0000 H       1  UNL1        0.1029
     53 H           3.8015   -0.7238    0.0000 H       1  UNL1        0.0584
     54 H           3.0044   -0.7238    0.0000 H       1  UNL1        0.0584
     55 H           6.8671   -3.8188    0.0000 H       1  UNL1        0.2101
     56 H           4.5981   -4.5088    0.0000 H       1  UNL1        0.2100
     57 H           3.4030   -3.8188    0.0000 H       1  UNL1        0.2100
     58 H          10.1611   -1.7496    0.0000 H       1  UNL1        0.2098
     59 H           2.0000   -1.3888    0.0000 H       1  UNL1        0.2095
     60 H           9.8651    4.1747    0.0000 H       1  UNL1        0.0689
     61 H           6.6210    4.3012    0.0000 H       1  UNL1        0.0661
     62 H           6.0010    4.9212    0.0000 H       1  UNL1        0.0661
     63 H           5.3810    4.3012    0.0000 H       1  UNL1        0.0661
     64 H          11.4503    4.5088    0.0000 H       1  UNL1        0.0626
     65 H          13.0966    3.9707    0.0000 H       1  UNL1        0.0625
     66 H          11.0082    2.0968    0.0000 H       1  UNL1        0.0625
     67 H          14.1785    2.7649    0.0000 H       1  UNL1        0.0654
     68 H          12.0901    0.8910    0.0000 H       1  UNL1        0.0654
     69 H          14.5357    1.0701    0.0000 H       1  UNL1        0.2921
@<TRIPOS>BOND
     1    17     1    1
     2    21     1    1
     3     2    17    1
     4     2    27    1
     5    16     3    1
     6     3    30    1
     7     4    21    1
     8     4    26    1
     9    22     5    1
    10     5    55    1
    11    23     6    1
    12     6    56    1
    13    25     7    1
    14     7    57    1
    15     8    24    1
    16     8    58    1
    17     9    28    1
    18     9    32    1
    19    10    28    2
    20    11    29    1
    21    11    59    1
    22    12    30    2
    23    13    39    1
    24    13    69    1
    25    14    15    1
    26    14    17    1
    27    14    18    1
    28    14    40    1
    29    15    16    1
    30    15    20    1
    31    15    41    1
    32    16    19    1
    33    16    42    1
    34    17    43    1
    35    18    19    2
    36    18    24    1
    37    19    44    1
    38    20    27    2
    39    20    28    1
    40    21    22    1
    41    21    45    1
    42    22    23    1
    43    22    46    1
    44    23    25    1
    45    23    47    1
    46    24    48    1
    47    24    49    1
    48    25    26    1
    49    25    50    1
    50    26    29    1
    51    26    51    1
    52    27    52    1
    53    29    53    1
    54    29    54    1
    55    30    31    1
    56    31    33    2
    57    31    60    1
    58    32    61    1
    59    32    62    1
    60    32    63    1
    61    33    34    1
    62    33    64    1
    63    34    35   ar
    64    34    36   ar
    65    35    37   ar
    66    35    65    1
    67    36    38   ar
    68    36    66    1
    69    37    39   ar
    70    37    67    1
    71    38    39   ar
    72    38    68    1
