@<TRIPOS>MOLECULE
IMPHY012826
 46 46 0 0 0
SMALL
GASTEIGER

@<TRIPOS>ATOM
      1 O           6.8671    1.0600    0.0000 O.3     1  UNL1       -0.4646
      2 O           6.0010    2.5600    0.0000 O.2     1  UNL1       -0.2509
      3 C           6.4493   -0.5954    0.0000 C.3     1  UNL1       -0.0530
      4 C           7.4152   -0.8542    0.0000 C.3     1  UNL1       -0.0530
      5 C           6.1905   -1.5613    0.0000 C.3     1  UNL1       -0.0528
      6 C           8.2813   -0.3542    0.0000 C.3     1  UNL1       -0.0500
      7 C           5.2246   -1.8201    0.0000 C.3     1  UNL1       -0.0496
      8 C           8.5401    0.6117    0.0000 C.3     1  UNL1       -0.0185
      9 C           4.2690   -1.4400    0.0000 C.3     1  UNL1       -0.0348
     10 C           4.2690   -0.4400    0.0000 C.3     1  UNL1       -0.0523
     11 C           3.4030    0.0600    0.0000 C.3     1  UNL1       -0.0496
     12 C           5.1350    0.0600    0.0000 C.3     1  UNL1       -0.0430
     13 C           2.5369   -0.4400    0.0000 C.3     1  UNL1       -0.0348
     14 C           7.8330    1.3188    0.0000 C.3     1  UNL1        0.0925
     15 C           5.1350    1.0600    0.0000 C.3     1  UNL1        0.0449
     16 C           3.4030   -1.9400    0.0000 C.2     1  UNL1       -0.0879
     17 C           2.5369   -1.4400    0.0000 C.2     1  UNL1       -0.0879
     18 C           6.0010    1.5600    0.0000 C.2     1  UNL1        0.3071
     19 H           6.6098    0.0035    0.0000 H       1  UNL1        0.0265
     20 H           5.8505   -0.4349    0.0000 H       1  UNL1        0.0265
     21 H           7.1052   -1.3912    0.0000 H       1  UNL1        0.0265
     22 H           7.8537   -1.2926    0.0000 H       1  UNL1        0.0265
     23 H           6.2445   -2.1790    0.0000 H       1  UNL1        0.0265
     24 H           6.8082   -1.6154    0.0000 H       1  UNL1        0.0265
     25 H           8.4417   -0.9531    0.0000 H       1  UNL1        0.0266
     26 H           8.9013   -0.3542    0.0000 H       1  UNL1        0.0266
     27 H           4.8305   -2.2988    0.0000 H       1  UNL1        0.0268
     28 H           5.5602   -2.3415    0.0000 H       1  UNL1        0.0268
     29 H           9.1020    0.3497    0.0000 H       1  UNL1        0.0298
     30 H           8.8957    1.1196    0.0000 H       1  UNL1        0.0298
     31 H           4.6198   -0.9288    0.0000 H       1  UNL1        0.0307
     32 H           3.8480   -0.9849    0.0000 H       1  UNL1        0.0307
     33 H           3.8705   -0.9149    0.0000 H       1  UNL1        0.0265
     34 H           4.6675   -0.9149    0.0000 H       1  UNL1        0.0265
     35 H           3.8015    0.5349    0.0000 H       1  UNL1        0.0268
     36 H           3.0044    0.5349    0.0000 H       1  UNL1        0.0268
     37 H           5.3471   -0.5226    0.0000 H       1  UNL1        0.0270
     38 H           5.7456    0.1677    0.0000 H       1  UNL1        0.0270
     39 H           2.3249    0.1426    0.0000 H       1  UNL1        0.0307
     40 H           1.9264   -0.5477    0.0000 H       1  UNL1        0.0307
     41 H           8.3409    1.6744    0.0000 H       1  UNL1        0.0697
     42 H           7.5710    1.8807    0.0000 H       1  UNL1        0.0697
     43 H           4.9230    1.6426    0.0000 H       1  UNL1        0.0377
     44 H           4.5244    0.9523    0.0000 H       1  UNL1        0.0377
     45 H           3.4030   -2.5600    0.0000 H       1  UNL1        0.0569
     46 H           2.0000   -1.7500    0.0000 H       1  UNL1        0.0569
@<TRIPOS>BOND
     1     1    14    1
     2     1    18    1
     3     2    18    2
     4     3     4    1
     5     3     5    1
     6     3    19    1
     7     3    20    1
     8     4     6    1
     9     4    21    1
    10     4    22    1
    11     5     7    1
    12     5    23    1
    13     5    24    1
    14     6     8    1
    15     6    25    1
    16     6    26    1
    17     7     9    1
    18     7    27    1
    19     7    28    1
    20     8    14    1
    21     8    29    1
    22     8    30    1
    23     9    16    1
    24     9    31    1
    25     9    32    1
    26    10    11    1
    27    10    12    1
    28    10    33    1
    29    10    34    1
    30    11    13    1
    31    11    35    1
    32    11    36    1
    33    12    15    1
    34    12    37    1
    35    12    38    1
    36    13    17    1
    37    13    39    1
    38    13    40    1
    39    14    41    1
    40    14    42    1
    41    15    18    1
    42    15    43    1
    43    15    44    1
    44    16    17    2
    45    16    45    1
    46    17    46    1
