@<TRIPOS>MOLECULE
IMPHY005790
 63 66 0 0 0
SMALL
GASTEIGER

@<TRIPOS>ATOM
      1 O           8.1223   -2.0185    0.0000 O.3     1  UNL1       -0.3475
      2 O           8.6855    1.8910    0.0000 O.3     1  UNL1       -0.3859
      3 O           5.5103    1.5099    0.0000 O.3     1  UNL1       -0.3888
      4 O           7.2762    2.5477    0.0000 O.3     1  UNL1       -0.3744
      5 O           9.8438   -2.0512    0.0000 O.3     1  UNL1       -0.3545
      6 O           4.6497    1.0131    0.0000 O.2     1  UNL1       -0.2882
      7 O           2.8680    0.0026    0.0000 O.2     1  UNL1       -0.4919
      8 C           7.2641   -0.5215    0.0000 C.3     1  UNL1        0.0061
      9 C           6.3981   -0.0215    0.0000 C.3     1  UNL1        0.0084
     10 C           8.1741   -0.0147    0.0000 C.3     1  UNL1        0.0028
     11 C           5.5320   -0.5215    0.0000 C.3     1  UNL1        0.0428
     12 C           7.2641   -1.5215    0.0000 C.3     1  UNL1        0.0680
     13 C           5.5320   -1.5215    0.0000 C.3     1  UNL1       -0.0222
     14 C           8.1821    1.0269    0.0000 C.3     1  UNL1        0.0952
     15 C           6.3820    1.0200    0.0000 C.3     1  UNL1        0.0883
     16 C           6.3981   -2.0215    0.0000 C.3     1  UNL1       -0.0219
     17 C           7.2800    1.5477    0.0000 C.3     1  UNL1        0.1130
     18 C           9.0134   -0.5429    0.0000 C.3     1  UNL1        0.0045
     19 C           7.2641    0.4785    0.0000 C.3     1  UNL1       -0.0565
     20 C           8.9878   -1.5343    0.0000 C.3     1  UNL1        0.1595
     21 C           5.5320    0.4785    0.0000 C.3     1  UNL1       -0.0518
     22 C           4.6381   -2.0562    0.0000 C.3     1  UNL1       -0.0271
     23 C           4.6381    0.0131    0.0000 C.2     1  UNL1        0.2034
     24 C           9.1821    1.0231    0.0000 C.3     1  UNL1       -0.0333
     25 C           3.7320   -0.5007    0.0000 C.2     1  UNL1        0.1590
     26 C           3.7320   -1.5424    0.0000 C.2     1  UNL1       -0.0385
     27 C           8.1403    3.0510    0.0000 C.3     1  UNL1        0.0370
     28 C           9.8241   -3.0510    0.0000 C.3     1  UNL1        0.0394
     29 C           2.0000   -0.4940    0.0000 C.3     1  UNL1        0.0789
     30 H           5.6587    0.3978    0.0000 H       1  UNL1        0.0342
     31 H           8.9198    0.3933    0.0000 H       1  UNL1        0.0337
     32 H           7.2636   -2.3715    0.0000 H       1  UNL1        0.0603
     33 H           5.5386   -2.3715    0.0000 H       1  UNL1        0.0314
     34 H           5.8493    0.7028    0.0000 H       1  UNL1        0.0623
     35 H           5.9995   -2.4965    0.0000 H       1  UNL1        0.0293
     36 H           6.7966   -2.4965    0.0000 H       1  UNL1        0.0293
     37 H           6.7413    1.8546    0.0000 H       1  UNL1        0.0651
     38 H           9.6205   -0.6688    0.0000 H       1  UNL1        0.0318
     39 H           9.2452    0.0321    0.0000 H       1  UNL1        0.0318
     40 H           7.8841    0.4785    0.0000 H       1  UNL1        0.0236
     41 H           7.2641    1.0985    0.0000 H       1  UNL1        0.0236
     42 H           6.6441    0.4785    0.0000 H       1  UNL1        0.0236
     43 H           8.9775   -2.1542    0.0000 H       1  UNL1        0.0909
     44 H           6.1520    0.4785    0.0000 H       1  UNL1        0.0239
     45 H           5.5320    1.0985    0.0000 H       1  UNL1        0.0239
     46 H           4.9120    0.4785    0.0000 H       1  UNL1        0.0239
     47 H           4.2445   -2.5352    0.0000 H       1  UNL1        0.0312
     48 H           5.0427   -2.5260    0.0000 H       1  UNL1        0.0312
     49 H           9.1797    0.4031    0.0000 H       1  UNL1        0.0258
     50 H           9.8021    1.0207    0.0000 H       1  UNL1        0.0258
     51 H           9.1845    1.6430    0.0000 H       1  UNL1        0.0258
     52 H           9.3055    1.8886    0.0000 H       1  UNL1        0.2103
     53 H           5.5031    2.1299    0.0000 H       1  UNL1        0.2099
     54 H           3.1963   -1.8544    0.0000 H       1  UNL1        0.0609
     55 H           8.4523    2.5153    0.0000 H       1  UNL1        0.0524
     56 H           8.6760    3.3631    0.0000 H       1  UNL1        0.0524
     57 H           7.8282    3.5868    0.0000 H       1  UNL1        0.0524
     58 H           9.2042   -3.0388    0.0000 H       1  UNL1        0.0525
     59 H           9.8119   -3.6709    0.0000 H       1  UNL1        0.0525
     60 H          10.4440   -3.0633    0.0000 H       1  UNL1        0.0525
     61 H           1.6921    0.0441    0.0000 H       1  UNL1        0.0660
     62 H           1.4619   -0.8020    0.0000 H       1  UNL1        0.0660
     63 H           2.3079   -1.0322    0.0000 H       1  UNL1        0.0660
@<TRIPOS>BOND
     1     1    12    1
     2     1    20    1
     3    14     2    1
     4     2    52    1
     5    15     3    1
     6     3    53    1
     7    17     4    1
     8     4    27    1
     9    20     5    1
    10     5    28    1
    11     6    23    2
    12     7    25    1
    13     7    29    1
    14     8     9    1
    15     8    10    1
    16     8    12    1
    17     8    19    1
    18     9    11    1
    19     9    15    1
    20     9    30    1
    21    10    14    1
    22    10    18    1
    23    10    31    1
    24    11    13    1
    25    11    21    1
    26    11    23    1
    27    12    16    1
    28    12    32    1
    29    13    16    1
    30    13    22    1
    31    13    33    1
    32    14    17    1
    33    14    24    1
    34    15    17    1
    35    15    34    1
    36    16    35    1
    37    16    36    1
    38    17    37    1
    39    18    20    1
    40    18    38    1
    41    18    39    1
    42    19    40    1
    43    19    41    1
    44    19    42    1
    45    20    43    1
    46    21    44    1
    47    21    45    1
    48    21    46    1
    49    22    26    1
    50    22    47    1
    51    22    48    1
    52    23    25    1
    53    24    49    1
    54    24    50    1
    55    24    51    1
    56    25    26    2
    57    26    54    1
    58    27    55    1
    59    27    56    1
    60    27    57    1
    61    28    58    1
    62    28    59    1
    63    28    60    1
    64    29    61    1
    65    29    62    1
    66    29    63    1
