@<TRIPOS>MOLECULE
IMPHY010982
 49 53 0 0 0
SMALL
GASTEIGER

@<TRIPOS>ATOM
      1 O           5.2579    0.5574    0.0000 O.3     1  UNL1       -0.4570
      2 O           9.0193   -1.7547    0.0000 O.3     1  UNL1       -0.3843
      3 O           2.8729   -2.4036    0.0000 O.3     1  UNL1       -0.3916
      4 O           2.8361    1.1140    0.0000 O.2     1  UNL1       -0.2502
      5 O           6.3347    1.7858    0.0000 O.3     1  UNL1       -0.4804
      6 O           4.6088    1.6403    0.0000 O.2     1  UNL1       -0.2507
      7 C           6.3260   -0.3308    0.0000 C.3     1  UNL1       -0.0028
      8 C           5.1120   -1.1765    0.0000 C.3     1  UNL1        0.1238
      9 C           6.0241   -1.1980    0.0000 C.3     1  UNL1        0.0063
     10 C           4.8490   -0.3025    0.0000 C.3     1  UNL1        0.0283
     11 C           5.5978    0.2184    0.0000 C.3     1  UNL1        0.0701
     12 C           3.9317   -0.0864    0.0000 C.3     1  UNL1        0.0745
     13 C           7.0220   -1.1632    0.0000 C.3     1  UNL1       -0.0130
     14 C           8.0749   -1.4258    0.0000 C.3     1  UNL1        0.0874
     15 C           7.1929   -0.0262    0.0000 C.3     1  UNL1       -0.0224
     16 C           6.5143   -1.9746    0.0000 C.3     1  UNL1       -0.0431
     17 C           4.4742   -1.8910    0.0000 C.3     1  UNL1        0.0139
     18 C           7.4266   -2.0758    0.0000 C.3     1  UNL1       -0.0197
     19 C           3.2866   -0.7726    0.0000 C.3     1  UNL1       -0.0108
     20 C           7.9705   -0.5132    0.0000 C.2     1  UNL1       -0.0449
     21 C           3.5581   -1.6753    0.0000 C.3     1  UNL1        0.0599
     22 C           3.6669    0.5574    0.0000 C.2     1  UNL1        0.3141
     23 C           5.5138    1.2148    0.0000 C.2     1  UNL1        0.3088
     24 C           2.9483    0.0947    0.0000 C.3     1  UNL1       -0.0489
     25 C           8.7741    0.0819    0.0000 C.2     1  UNL1       -0.0967
     26 H           5.6049   -1.9375    0.0000 H       1  UNL1        0.0345
     27 H           4.4140    0.4278    0.0000 H       1  UNL1        0.0358
     28 H           6.1406    0.5180    0.0000 H       1  UNL1        0.0423
     29 H           7.0649   -1.7818    0.0000 H       1  UNL1        0.0302
     30 H           6.4469   -1.3948    0.0000 H       1  UNL1        0.0302
     31 H           6.8623    0.4983    0.0000 H       1  UNL1        0.0316
     32 H           7.6307    0.4128    0.0000 H       1  UNL1        0.0316
     33 H           6.5848   -2.5905    0.0000 H       1  UNL1        0.0270
     34 H           5.9295   -2.1805    0.0000 H       1  UNL1        0.0270
     35 H           4.9986   -2.2219    0.0000 H       1  UNL1        0.0329
     36 H           4.2344   -2.4628    0.0000 H       1  UNL1        0.0329
     37 H           7.9521   -2.4049    0.0000 H       1  UNL1        0.0296
     38 H           7.2228   -2.6614    0.0000 H       1  UNL1        0.0296
     39 H           2.7329   -1.0516    0.0000 H       1  UNL1        0.0301
     40 H           2.9156   -0.2759    0.0000 H       1  UNL1        0.0301
     41 H           2.9546   -1.5331    0.0000 H       1  UNL1        0.0595
     42 H           2.8360   -0.5150    0.0000 H       1  UNL1        0.0240
     43 H           2.3385    0.2071    0.0000 H       1  UNL1        0.0240
     44 H           3.0606    0.7045    0.0000 H       1  UNL1        0.0240
     45 H           9.1355   -2.3637    0.0000 H       1  UNL1        0.2106
     46 H           8.7037    0.6979    0.0000 H       1  UNL1        0.0535
     47 H           9.3428   -0.1651    0.0000 H       1  UNL1        0.0535
     48 H           2.2694   -2.2615    0.0000 H       1  UNL1        0.2098
     49 H           6.2827    2.4036    0.0000 H       1  UNL1        0.2951
@<TRIPOS>BOND
     1     8     1    1
     2     1    22    1
     3    14     2    1
     4     2    45    1
     5    21     3    1
     6     3    48    1
     7     4    22    2
     8     5    23    1
     9     5    49    1
    10     6    23    2
    11     7     9    1
    12     7    11    1
    13     7    13    1
    14     7    15    1
    15     8     9    1
    16     8    10    1
    17     8    17    1
    18     9    16    1
    19     9    26    1
    20    10    11    1
    21    10    12    1
    22    10    27    1
    23    11    23    1
    24    11    28    1
    25    12    19    1
    26    12    22    1
    27    12    24    1
    28    13    14    1
    29    13    29    1
    30    13    30    1
    31    14    18    1
    32    14    20    1
    33    15    20    1
    34    15    31    1
    35    15    32    1
    36    16    18    1
    37    16    33    1
    38    16    34    1
    39    17    21    1
    40    17    35    1
    41    17    36    1
    42    18    37    1
    43    18    38    1
    44    19    21    1
    45    19    39    1
    46    19    40    1
    47    20    25    2
    48    21    41    1
    49    24    42    1
    50    24    43    1
    51    24    44    1
    52    25    46    1
    53    25    47    1
