@<TRIPOS>MOLECULE
IMPHY008617
 47 52 0 0 0
SMALL
GASTEIGER

@<TRIPOS>ATOM
      1 O           6.3052    3.5673    0.0000 O.3     1  UNL1       -0.4518
      2 O           4.8598    4.4167    0.0000 O.3     1  UNL1       -0.4525
      3 O           2.8641   -1.7083    0.0000 O.3     1  UNL1       -0.4945
      4 O           7.3060   -3.5278    0.0000 O.3     1  UNL1       -0.4526
      5 O           5.8005   -4.4125    0.0000 O.3     1  UNL1       -0.4526
      6 O           2.8799    1.3337    0.0000 O.3     1  UNL1       -0.4944
      7 N           6.3821    0.3368    0.0000 N.ar    1  UNL1       -0.1986
      8 C           5.5161   -0.1632    0.0000 C.ar    1  UNL1        0.2235
      9 C           4.6501    0.3368    0.0000 C.ar    1  UNL1        0.0618
     10 C           4.6501    1.3368    0.0000 C.ar    1  UNL1        0.0467
     11 C           5.5322   -1.2047    0.0000 C.ar    1  UNL1        0.0611
     12 C           5.5161    1.8368    0.0000 C.ar    1  UNL1        0.0952
     13 C           4.6341   -1.7324    0.0000 C.ar    1  UNL1        0.0338
     14 C           6.3821    1.3368    0.0000 C.ar    1  UNL1        0.1830
     15 C           3.7401   -0.1700    0.0000 C.ar    1  UNL1       -0.0052
     16 C           5.5322    2.8783    0.0000 C.ar    1  UNL1        0.1798
     17 C           3.7320   -1.2116    0.0000 C.ar    1  UNL1        0.1289
     18 C           3.7401    1.8437    0.0000 C.ar    1  UNL1        0.1324
     19 C           6.4841   -1.7253    0.0000 C.ar    1  UNL1       -0.0020
     20 C           4.6341    3.4061    0.0000 C.ar    1  UNL1        0.1705
     21 C           4.6258   -2.8174    0.0000 C.ar    1  UNL1       -0.0047
     22 C           6.5008   -2.8102    0.0000 C.ar    1  UNL1        0.1670
     23 C           3.7320    2.8853    0.0000 C.ar    1  UNL1        0.0262
     24 C           5.5654   -3.3599    0.0000 C.ar    1  UNL1        0.1669
     25 C           7.2482   -0.1632    0.0000 C.3     1  UNL1        0.1410
     26 C           5.8905    4.5161    0.0000 C.3     1  UNL1        0.2333
     27 C           6.8741   -4.5161    0.0000 C.3     1  UNL1        0.2332
     28 C           2.0000   -1.2049    0.0000 C.3     1  UNL1        0.0788
     29 C           2.0081    1.8236    0.0000 C.3     1  UNL1        0.0788
     30 H           6.9191    1.6468    0.0000 H       1  UNL1        0.1384
     31 H           3.2068    0.1462    0.0000 H       1  UNL1        0.0662
     32 H           7.0149   -1.4050    0.0000 H       1  UNL1        0.0663
     33 H           4.0876   -3.1253    0.0000 H       1  UNL1        0.0663
     34 H           3.1939    3.1932    0.0000 H       1  UNL1        0.0692
     35 H           6.9382   -0.7001    0.0000 H       1  UNL1        0.0993
     36 H           7.7851   -0.4732    0.0000 H       1  UNL1        0.0993
     37 H           7.5582    0.3738    0.0000 H       1  UNL1        0.0993
     38 H           6.4816    4.7033    0.0000 H       1  UNL1        0.1166
     39 H           5.7665    5.1235    0.0000 H       1  UNL1        0.1166
     40 H           6.7500   -5.1235    0.0000 H       1  UNL1        0.1166
     41 H           7.4651   -4.7033    0.0000 H       1  UNL1        0.1166
     42 H           2.3121   -0.6692    0.0000 H       1  UNL1        0.0660
     43 H           1.4643   -0.8929    0.0000 H       1  UNL1        0.0660
     44 H           1.6879   -1.7407    0.0000 H       1  UNL1        0.0660
     45 H           2.3119    2.3641    0.0000 H       1  UNL1        0.0660
     46 H           1.4676    2.1274    0.0000 H       1  UNL1        0.0660
     47 H           1.7044    1.2832    0.0000 H       1  UNL1        0.0660
@<TRIPOS>UNITY_ATOM_ATTR
7 1
charge 1
@<TRIPOS>BOND
     1     1    16    1
     2     1    26    1
     3     2    20    1
     4     2    26    1
     5     3    17    1
     6     3    28    1
     7     4    22    1
     8     4    27    1
     9     5    24    1
    10     5    27    1
    11     6    18    1
    12     6    29    1
    13     7     8   ar
    14     7    14   ar
    15     7    25    1
    16     8     9   ar
    17     8    11   ar
    18     9    10   ar
    19     9    15   ar
    20    10    12   ar
    21    10    18   ar
    22    11    13   ar
    23    11    19   ar
    24    12    14   ar
    25    12    16   ar
    26    13    17   ar
    27    13    21   ar
    28    14    30    1
    29    15    17   ar
    30    15    31    1
    31    16    20   ar
    32    18    23   ar
    33    19    22   ar
    34    19    32    1
    35    20    23   ar
    36    21    24   ar
    37    21    33    1
    38    22    24   ar
    39    23    34    1
    40    25    35    1
    41    25    36    1
    42    25    37    1
    43    26    38    1
    44    26    39    1
    45    27    40    1
    46    27    41    1
    47    28    42    1
    48    28    43    1
    49    28    44    1
    50    29    45    1
    51    29    46    1
    52    29    47    1
