@<TRIPOS>MOLECULE
IMPHY016891
 22 22 0 0 0
SMALL
GASTEIGER

@<TRIPOS>ATOM
      1 O           2.0000    1.0000    0.0000 O.2     1  UNL1       -0.4944
      2 O           4.5981    2.5000    0.0000 O.2     1  UNL1       -0.2962
      3 C           2.8660   -0.5000    0.0000 C.ar    1  UNL1        0.0168
      4 C           2.8660    0.5000    0.0000 C.2     1  UNL1        0.1302
      5 C           2.0000   -1.0000    0.0000 C.ar    1  UNL1       -0.0511
      6 C           3.7320   -1.0000    0.0000 C.ar    1  UNL1       -0.0511
      7 C           2.0000   -2.0000    0.0000 C.ar    1  UNL1       -0.0611
      8 C           3.7320   -2.0000    0.0000 C.ar    1  UNL1       -0.0611
      9 C           2.8660   -2.5000    0.0000 C.ar    1  UNL1       -0.0617
     10 C           3.7320    1.0000    0.0000 C.2     1  UNL1        0.0199
     11 C           2.0000    2.0000    0.0000 C.3     1  UNL1        0.0788
     12 C           3.7320    2.0000    0.0000 C.2     1  UNL1        0.1466
     13 H           1.4631   -0.6900    0.0000 H       1  UNL1        0.0625
     14 H           4.2690   -0.6900    0.0000 H       1  UNL1        0.0625
     15 H           1.4631   -2.3100    0.0000 H       1  UNL1        0.0618
     16 H           4.2690   -2.3100    0.0000 H       1  UNL1        0.0618
     17 H           2.8660   -3.1200    0.0000 H       1  UNL1        0.0618
     18 H           4.2690    0.6900    0.0000 H       1  UNL1        0.0686
     19 H           2.6200    2.0000    0.0000 H       1  UNL1        0.0660
     20 H           2.0000    2.6200    0.0000 H       1  UNL1        0.0660
     21 H           1.3800    2.0000    0.0000 H       1  UNL1        0.0660
     22 H           3.1951    2.3100    0.0000 H       1  UNL1        0.1076
@<TRIPOS>BOND
     1     1     4    1
     2     1    11    1
     3     2    12    2
     4     3     4    1
     5     3     5   ar
     6     3     6   ar
     7     4    10    2
     8     5     7   ar
     9     5    13    1
    10     6     8   ar
    11     6    14    1
    12     7     9   ar
    13     7    15    1
    14     8     9   ar
    15     8    16    1
    16     9    17    1
    17    10    12    1
    18    10    18    1
    19    11    19    1
    20    11    20    1
    21    11    21    1
    22    12    22    1
