@<TRIPOS>MOLECULE
IMPHY016333
 24 23 0 0 0
SMALL
GASTEIGER

@<TRIPOS>ATOM
      1 O           4.5981   -0.7500    0.0000 O.2     1  UNL1       -0.2879
      2 C           6.3301    0.2500    0.0000 C.2     1  UNL1       -0.0721
      3 C           2.8660    0.2500    0.0000 C.2     1  UNL1       -0.0721
      4 C           5.4641    0.7500    0.0000 C.2     1  UNL1       -0.0162
      5 C           3.7320    0.7500    0.0000 C.2     1  UNL1       -0.0162
      6 C           4.5981    0.2500    0.0000 C.2     1  UNL1        0.1789
      7 C           7.1962    0.7500    0.0000 C.3     1  UNL1       -0.0436
      8 C           6.3301   -0.7500    0.0000 C.3     1  UNL1       -0.0436
      9 C           2.0000    0.7500    0.0000 C.3     1  UNL1       -0.0436
     10 C           2.8660   -0.7500    0.0000 C.3     1  UNL1       -0.0436
     11 H           5.4641    1.3700    0.0000 H       1  UNL1        0.0655
     12 H           3.7320    1.3700    0.0000 H       1  UNL1        0.0655
     13 H           7.5062    0.2131    0.0000 H       1  UNL1        0.0274
     14 H           7.7331    1.0600    0.0000 H       1  UNL1        0.0274
     15 H           6.8862    1.2869    0.0000 H       1  UNL1        0.0274
     16 H           5.7101   -0.7500    0.0000 H       1  UNL1        0.0274
     17 H           6.3301   -1.3700    0.0000 H       1  UNL1        0.0274
     18 H           6.9501   -0.7500    0.0000 H       1  UNL1        0.0274
     19 H           2.3100    1.2869    0.0000 H       1  UNL1        0.0274
     20 H           1.4631    1.0600    0.0000 H       1  UNL1        0.0274
     21 H           1.6900    0.2131    0.0000 H       1  UNL1        0.0274
     22 H           2.2460   -0.7500    0.0000 H       1  UNL1        0.0274
     23 H           2.8660   -1.3700    0.0000 H       1  UNL1        0.0274
     24 H           3.4860   -0.7500    0.0000 H       1  UNL1        0.0274
@<TRIPOS>BOND
     1     1     6    2
     2     2     4    2
     3     2     7    1
     4     2     8    1
     5     3     5    2
     6     3     9    1
     7     3    10    1
     8     4     6    1
     9     4    11    1
    10     5     6    1
    11     5    12    1
    12     7    13    1
    13     7    14    1
    14     7    15    1
    15     8    16    1
    16     8    17    1
    17     8    18    1
    18     9    19    1
    19     9    20    1
    20     9    21    1
    21    10    22    1
    22    10    23    1
    23    10    24    1
