@<TRIPOS>MOLECULE
IMPHY015510
 15 16 0 0 0
SMALL
GASTEIGER

@<TRIPOS>ATOM
      1 O           2.6064    1.2201    0.0000 O.3     1  UNL1       -0.3875
      2 C           3.8665   -0.0400    0.0000 C.3     1  UNL1       -0.0046
      3 C           3.8665   -1.0400    0.0000 C.3     1  UNL1       -0.0170
      4 C           4.7331   -0.5400    0.0000 C.3     1  UNL1       -0.0404
      5 C           2.9155    0.2690    0.0000 C.3     1  UNL1        0.0767
      6 C           2.9155   -1.3490    0.0000 C.2     1  UNL1       -0.0821
      7 C           2.3277   -0.5400    0.0000 C.2     1  UNL1       -0.0593
      8 H           4.1186    0.5264    0.0000 H       1  UNL1        0.0335
      9 H           4.1186   -1.6064    0.0000 H       1  UNL1        0.0347
     10 H           5.1316   -1.0150    0.0000 H       1  UNL1        0.0275
     11 H           5.1316   -0.0650    0.0000 H       1  UNL1        0.0275
     12 H           2.3031    0.3660    0.0000 H       1  UNL1        0.0640
     13 H           2.7239   -1.9386    0.0000 H       1  UNL1        0.0573
     14 H           1.7077   -0.5400    0.0000 H       1  UNL1        0.0595
     15 H           2.0000    1.3490    0.0000 H       1  UNL1        0.2102
@<TRIPOS>BOND
     1     1     5    1
     2     1    15    1
     3     2     3    1
     4     2     4    1
     5     2     5    1
     6     2     8    1
     7     3     4    1
     8     3     6    1
     9     3     9    1
    10     4    10    1
    11     4    11    1
    12     5     7    1
    13     5    12    1
    14     6     7    2
    15     6    13    1
    16     7    14    1
