@<TRIPOS>MOLECULE
IMPHY006026
 17 17 0 0 0
SMALL
GASTEIGER

@<TRIPOS>ATOM
      1 O           3.7320    2.2500    0.0000 O.2     1  UNL1       -0.2957
      2 C           2.8660   -1.2500    0.0000 C.ar    1  UNL1       -0.0504
      3 C           3.7320   -0.7500    0.0000 C.ar    1  UNL1       -0.0582
      4 C           2.0000   -0.7500    0.0000 C.ar    1  UNL1       -0.0582
      5 C           2.8660    0.7500    0.0000 C.ar    1  UNL1        0.0142
      6 C           3.7320    0.2500    0.0000 C.ar    1  UNL1       -0.0513
      7 C           2.0000    0.2500    0.0000 C.ar    1  UNL1       -0.0513
      8 C           2.8660   -2.2500    0.0000 C.3     1  UNL1       -0.0397
      9 C           2.8660    1.7500    0.0000 C.2     1  UNL1        0.1502
     10 H           4.2690   -1.0600    0.0000 H       1  UNL1        0.0620
     11 H           1.4631   -1.0600    0.0000 H       1  UNL1        0.0620
     12 H           4.2690    0.5600    0.0000 H       1  UNL1        0.0624
     13 H           1.4631    0.5600    0.0000 H       1  UNL1        0.0624
     14 H           2.2460   -2.2500    0.0000 H       1  UNL1        0.0278
     15 H           2.8660   -2.8700    0.0000 H       1  UNL1        0.0278
     16 H           3.4860   -2.2500    0.0000 H       1  UNL1        0.0278
     17 H           2.3291    2.0600    0.0000 H       1  UNL1        0.1081
@<TRIPOS>BOND
     1     1     9    2
     2     2     3   ar
     3     2     4   ar
     4     2     8    1
     5     3     6   ar
     6     3    10    1
     7     4     7   ar
     8     4    11    1
     9     5     6   ar
    10     5     7   ar
    11     5     9    1
    12     6    12    1
    13     7    13    1
    14     8    14    1
    15     8    15    1
    16     8    16    1
    17     9    17    1
