@<TRIPOS>MOLECULE
IMPHY006910
 39 40 0 0 0
SMALL
GASTEIGER

@<TRIPOS>ATOM
      1 O           6.3301    1.7500    0.0000 O.3     1  UNL1       -0.4940
      2 O           8.0901   -1.2847    0.0000 O.2     1  UNL1       -0.4219
      3 O           4.5981   -1.2500    0.0000 O.3     1  UNL1       -0.4946
      4 O           3.7320   -0.7500    0.0000 O.2     1  UNL1       -0.2968
      5 O           9.8602   -1.2741    0.0000 O.2     1  UNL1       -0.2452
      6 C           5.4641    0.2500    0.0000 C.ar    1  UNL1        0.0437
      7 C           4.5981    0.7500    0.0000 C.3     1  UNL1        0.0382
      8 C           2.8660    0.7500    0.0000 C.3     1  UNL1        0.0122
      9 C           3.7320    0.2500    0.0000 C.2     1  UNL1        0.1404
     10 C           6.3301    0.7500    0.0000 C.ar    1  UNL1        0.1378
     11 C           7.1962    0.2500    0.0000 C.ar    1  UNL1        0.0597
     12 C           5.4641   -0.7500    0.0000 C.ar    1  UNL1        0.1307
     13 C           7.1962   -0.7500    0.0000 C.ar    1  UNL1        0.1460
     14 C           6.3301   -1.2500    0.0000 C.ar    1  UNL1        0.0236
     15 C           2.0000    0.2500    0.0000 C.3     1  UNL1       -0.0559
     16 C           2.8660    1.7500    0.0000 C.3     1  UNL1       -0.0559
     17 C           8.0901    0.7847    0.0000 C.ar    1  UNL1       -0.0408
     18 C           8.9962    0.2708    0.0000 C.ar    1  UNL1        0.0237
     19 C           8.9962   -0.7708    0.0000 C.ar    1  UNL1        0.3372
     20 C           7.1962    2.2500    0.0000 C.3     1  UNL1        0.0788
     21 C           4.5981   -2.2500    0.0000 C.3     1  UNL1        0.0788
     22 H           4.9966    1.2250    0.0000 H       1  UNL1        0.0392
     23 H           4.1996    1.2250    0.0000 H       1  UNL1        0.0392
     24 H           2.8660    0.1300    0.0000 H       1  UNL1        0.0372
     25 H           6.3301   -1.8700    0.0000 H       1  UNL1        0.0691
     26 H           3.4860    1.7500    0.0000 H       1  UNL1        0.0236
     27 H           1.6900    0.7869    0.0000 H       1  UNL1        0.0236
     28 H           1.4631   -0.0600    0.0000 H       1  UNL1        0.0236
     29 H           2.3100   -0.2869    0.0000 H       1  UNL1        0.0236
     30 H           2.8660    2.3700    0.0000 H       1  UNL1        0.0236
     31 H           2.2460    1.7500    0.0000 H       1  UNL1        0.0236
     32 H           8.0829    1.4046    0.0000 H       1  UNL1        0.0628
     33 H           9.5319    0.5829    0.0000 H       1  UNL1        0.0689
     34 H           7.5062    1.7131    0.0000 H       1  UNL1        0.0660
     35 H           7.7331    2.5600    0.0000 H       1  UNL1        0.0660
     36 H           6.8862    2.7869    0.0000 H       1  UNL1        0.0660
     37 H           3.9781   -2.2500    0.0000 H       1  UNL1        0.0660
     38 H           4.5981   -2.8700    0.0000 H       1  UNL1        0.0660
     39 H           5.2181   -2.2500    0.0000 H       1  UNL1        0.0660
@<TRIPOS>BOND
     1     1    10    1
     2     1    20    1
     3     2    13   ar
     4     2    19   ar
     5     3    12    1
     6     3    21    1
     7     4     9    2
     8     5    19    2
     9     6     7    1
    10     6    10   ar
    11     6    12   ar
    12     7     9    1
    13     7    22    1
    14     7    23    1
    15     8     9    1
    16     8    15    1
    17     8    16    1
    18     8    24    1
    19    10    11   ar
    20    11    13   ar
    21    11    17   ar
    22    12    14   ar
    23    13    14   ar
    24    14    25    1
    25    15    27    1
    26    15    28    1
    27    15    29    1
    28    16    26    1
    29    16    30    1
    30    16    31    1
    31    17    18   ar
    32    17    32    1
    33    18    19   ar
    34    18    33    1
    35    20    34    1
    36    20    35    1
    37    20    36    1
    38    21    37    1
    39    21    38    1
    40    21    39    1
