@<TRIPOS>MOLECULE
IMPHY012614
 15 15 0 0 0
SMALL
GASTEIGER

@<TRIPOS>ATOM
      1 O           2.8090    0.2239    0.0000 O.2     1  UNL1       -0.4644
      2 O           4.7770   -0.4755    0.0000 O.3     1  UNL1       -0.4589
      3 O           5.9360   -1.7627    0.0000 O.2     1  UNL1       -0.2546
      4 C           3.6180    0.8116    0.0000 C.ar    1  UNL1        0.1421
      5 C           4.5691    0.5026    0.0000 C.3     1  UNL1        0.1495
      6 C           3.3090    1.7627    0.0000 C.ar    1  UNL1       -0.0173
      7 C           2.3090    1.7627    0.0000 C.ar    1  UNL1       -0.0235
      8 C           2.0000    0.8116    0.0000 C.ar    1  UNL1        0.0922
      9 C           5.7281   -0.7845    0.0000 C.2     1  UNL1        0.2947
     10 H           5.1887    0.5243    0.0000 H       1  UNL1        0.0780
     11 H           4.6554    1.1166    0.0000 H       1  UNL1        0.0780
     12 H           3.6734    2.2643    0.0000 H       1  UNL1        0.0653
     13 H           1.9446    2.2643    0.0000 H       1  UNL1        0.0649
     14 H           1.4103    0.6200    0.0000 H       1  UNL1        0.1029
     15 H           6.1888   -0.3697    0.0000 H       1  UNL1        0.1512
@<TRIPOS>BOND
     1     1     4   ar
     2     1     8   ar
     3     2     5    1
     4     2     9    1
     5     3     9    2
     6     4     5    1
     7     4     6   ar
     8     5    10    1
     9     5    11    1
    10     6     7   ar
    11     6    12    1
    12     7     8   ar
    13     7    13    1
    14     8    14    1
    15     9    15    1
