@<TRIPOS>MOLECULE
IMPHY016886
 41 43 0 0 0
SMALL
GASTEIGER

@<TRIPOS>ATOM
      1 O           4.0885   -2.7375    0.0000 O.3     1  UNL1       -0.3907
      2 O           5.8205   -2.7384    0.0000 O.3     1  UNL1       -0.3907
      3 C           2.5739    1.9255    0.0000 C.3     1  UNL1       -0.0202
      4 C           2.0000    1.5055    0.0000 C.3     1  UNL1       -0.0312
      5 C           2.3886    2.6986    0.0000 C.3     1  UNL1       -0.0312
      6 C           3.2246    1.7629    0.0000 C.3     1  UNL1       -0.0230
      7 C           4.0843    2.0882    0.0000 C.3     1  UNL1       -0.0346
      8 C           3.3827    1.1271    0.0000 C.3     1  UNL1       -0.0461
      9 C           3.3827    2.8319    0.0000 C.3     1  UNL1       -0.0461
     10 C           2.8211    3.0486    0.0000 C.3     1  UNL1       -0.0585
     11 C           4.0904    1.2625    0.0000 C.3     1  UNL1       -0.0434
     12 C           3.9331    2.6688    0.0000 C.3     1  UNL1       -0.0588
     13 C           4.0899    0.2625    0.0000 C.3     1  UNL1       -0.0338
     14 C           4.9557   -0.2379    0.0000 C.2     1  UNL1       -0.0804
     15 C           4.9552   -1.2379    0.0000 C.2     1  UNL1       -0.0233
     16 C           4.0890   -1.7375    0.0000 C.3     1  UNL1        0.0674
     17 C           5.8210   -1.7384    0.0000 C.3     1  UNL1        0.0674
     18 H           1.4542    1.2113    0.0000 H       1  UNL1        0.0309
     19 H           1.9917    3.1750    0.0000 H       1  UNL1        0.0309
     20 H           4.7031    2.1271    0.0000 H       1  UNL1        0.0306
     21 H           3.1480    0.5532    0.0000 H       1  UNL1        0.0271
     22 H           3.9240    0.8247    0.0000 H       1  UNL1        0.0271
     23 H           3.9117    3.1552    0.0000 H       1  UNL1        0.0271
     24 H           3.1754    3.4162    0.0000 H       1  UNL1        0.0271
     25 H           3.4266    2.9154    0.0000 H       1  UNL1        0.0235
     26 H           2.9543    3.6541    0.0000 H       1  UNL1        0.0235
     27 H           2.2156    3.1819    0.0000 H       1  UNL1        0.0235
     28 H           4.7009    1.1545    0.0000 H       1  UNL1        0.0274
     29 H           4.3027    1.8450    0.0000 H       1  UNL1        0.0274
     30 H           4.4214    2.2868    0.0000 H       1  UNL1        0.0235
     31 H           4.3150    3.1572    0.0000 H       1  UNL1        0.0235
     32 H           3.4447    3.0507    0.0000 H       1  UNL1        0.0235
     33 H           3.4794    0.3704    0.0000 H       1  UNL1        0.0308
     34 H           3.8776   -0.3200    0.0000 H       1  UNL1        0.0308
     35 H           5.4928    0.0718    0.0000 H       1  UNL1        0.0573
     36 H           3.8772   -1.1548    0.0000 H       1  UNL1        0.0605
     37 H           3.4783   -1.8449    0.0000 H       1  UNL1        0.0605
     38 H           6.4315   -1.8463    0.0000 H       1  UNL1        0.0605
     39 H           6.0333   -1.1558    0.0000 H       1  UNL1        0.0605
     40 H           3.5514   -3.0473    0.0000 H       1  UNL1        0.2098
     41 H           6.3573   -3.0486    0.0000 H       1  UNL1        0.2098
@<TRIPOS>BOND
     1     1    16    1
     2     1    40    1
     3     2    17    1
     4     2    41    1
     5     3     4    1
     6     3     5    1
     7     3     6    1
     8     3    10    1
     9     4     5    1
    10     4     8    1
    11     4    18    1
    12     5     9    1
    13     5    19    1
    14     6     7    1
    15     6    11    1
    16     6    12    1
    17     7     8    1
    18     7     9    1
    19     7    20    1
    20     8    21    1
    21     8    22    1
    22     9    23    1
    23     9    24    1
    24    10    25    1
    25    10    26    1
    26    10    27    1
    27    11    13    1
    28    11    28    1
    29    11    29    1
    30    12    30    1
    31    12    31    1
    32    12    32    1
    33    13    14    1
    34    13    33    1
    35    13    34    1
    36    14    15    2
    37    14    35    1
    38    15    16    1
    39    15    17    1
    40    16    36    1
    41    16    37    1
    42    17    38    1
    43    17    39    1
