@<TRIPOS>MOLECULE
IMPHY008489
 56 58 0 0 0
SMALL
GASTEIGER

@<TRIPOS>ATOM
      1 O           4.8936   -0.5894    0.0000 O.3     1  UNL1       -0.4844
      2 O           2.3100    0.2154    0.0000 O.3     1  UNL1       -0.3855
      3 O           6.6898    2.2569    0.0000 O.2     1  UNL1       -0.4216
      4 O           8.4379   -0.7846    0.0000 O.3     1  UNL1       -0.5052
      5 O           5.8398   -2.2846    0.0000 O.2     1  UNL1       -0.2918
      6 O           7.5840    3.7846    0.0000 O.2     1  UNL1       -0.2452
      7 C           4.3100    0.2154    0.0000 C.3     1  UNL1        0.1324
      8 C           4.8936    1.0201    0.0000 C.3     1  UNL1        0.0192
      9 C           3.3100    0.2154    0.0000 C.3     1  UNL1        0.0974
     10 C           5.8398    0.7154    0.0000 C.ar    1  UNL1        0.0417
     11 C           5.8398   -0.2846    0.0000 C.ar    1  UNL1        0.1418
     12 C           6.7058    1.2154    0.0000 C.ar    1  UNL1        0.1496
     13 C           6.7058   -0.7846    0.0000 C.ar    1  UNL1        0.1014
     14 C           7.5719    0.7154    0.0000 C.ar    1  UNL1        0.0633
     15 C           3.3100   -0.7846    0.0000 C.3     1  UNL1       -0.0328
     16 C           3.3100    1.2154    0.0000 C.3     1  UNL1       -0.0328
     17 C           7.5719   -0.2846    0.0000 C.ar    1  UNL1        0.1418
     18 C           8.4819    1.2222    0.0000 C.ar    1  UNL1       -0.0264
     19 C           6.7058   -1.7846    0.0000 C.2     1  UNL1        0.1705
     20 C           7.5719   -2.2846    0.0000 C.3     1  UNL1        0.0130
     21 C           9.3421    0.7122    0.0000 C.3     1  UNL1       -0.0269
     22 C           7.5719   -3.2846    0.0000 C.3     1  UNL1       -0.0397
     23 C           8.4899    2.2638    0.0000 C.ar    1  UNL1        0.0269
     24 C           7.5878    2.7846    0.0000 C.ar    1  UNL1        0.3375
     25 C          10.2138    1.2022    0.0000 C.3     1  UNL1       -0.0519
     26 C           8.4379   -3.7846    0.0000 C.3     1  UNL1       -0.0623
     27 C           6.7058   -3.7846    0.0000 C.3     1  UNL1       -0.0623
     28 C          11.0740    0.6922    0.0000 C.3     1  UNL1       -0.0650
     29 H           4.0283   -0.3369    0.0000 H       1  UNL1        0.0765
     30 H           5.1446    1.5870    0.0000 H       1  UNL1        0.0352
     31 H           4.3562    1.3293    0.0000 H       1  UNL1        0.0352
     32 H           3.9300    1.2154    0.0000 H       1  UNL1        0.0258
     33 H           3.3100    1.8354    0.0000 H       1  UNL1        0.0258
     34 H           2.6900    1.2154    0.0000 H       1  UNL1        0.0258
     35 H           2.6900   -0.7846    0.0000 H       1  UNL1        0.0258
     36 H           3.3100   -1.4046    0.0000 H       1  UNL1        0.0258
     37 H           3.9300   -0.7846    0.0000 H       1  UNL1        0.0258
     38 H           2.0000    0.7523    0.0000 H       1  UNL1        0.2103
     39 H           8.1825   -2.3923    0.0000 H       1  UNL1        0.0348
     40 H           7.7839   -1.7020    0.0000 H       1  UNL1        0.0348
     41 H           8.9381    0.2419    0.0000 H       1  UNL1        0.0313
     42 H           9.7351    0.2327    0.0000 H       1  UNL1        0.0313
     43 H           7.5719   -3.9046    0.0000 H       1  UNL1        0.0300
     44 H           9.0280    2.5718    0.0000 H       1  UNL1        0.0692
     45 H          10.6178    1.6725    0.0000 H       1  UNL1        0.0266
     46 H           9.8208    1.6817    0.0000 H       1  UNL1        0.0266
     47 H           8.4379   -1.4046    0.0000 H       1  UNL1        0.2922
     48 H           6.3958   -3.2477    0.0000 H       1  UNL1        0.0232
     49 H           6.1689   -4.0946    0.0000 H       1  UNL1        0.0232
     50 H           7.0158   -4.3216    0.0000 H       1  UNL1        0.0232
     51 H           8.1279   -4.3216    0.0000 H       1  UNL1        0.0232
     52 H           8.9748   -4.0946    0.0000 H       1  UNL1        0.0232
     53 H           8.7479   -3.2477    0.0000 H       1  UNL1        0.0232
     54 H          10.7578    0.1589    0.0000 H       1  UNL1        0.0230
     55 H          11.6073    0.3760    0.0000 H       1  UNL1        0.0230
     56 H          11.3902    1.2255    0.0000 H       1  UNL1        0.0230
@<TRIPOS>BOND
     1     1     7    1
     2     1    11    1
     3     2     9    1
     4     2    38    1
     5     3    12   ar
     6     3    24   ar
     7     4    17    1
     8     4    47    1
     9     5    19    2
    10     6    24    2
    11     7     8    1
    12     7     9    1
    13     7    29    1
    14     8    10    1
    15     8    30    1
    16     8    31    1
    17     9    15    1
    18     9    16    1
    19    10    11   ar
    20    10    12   ar
    21    11    13   ar
    22    12    14   ar
    23    13    17   ar
    24    13    19    1
    25    14    17   ar
    26    14    18   ar
    27    15    35    1
    28    15    36    1
    29    15    37    1
    30    16    32    1
    31    16    33    1
    32    16    34    1
    33    18    21    1
    34    18    23   ar
    35    19    20    1
    36    20    22    1
    37    20    39    1
    38    20    40    1
    39    21    25    1
    40    21    41    1
    41    21    42    1
    42    22    26    1
    43    22    27    1
    44    22    43    1
    45    23    24   ar
    46    23    44    1
    47    25    28    1
    48    25    45    1
    49    25    46    1
    50    26    51    1
    51    26    52    1
    52    26    53    1
    53    27    48    1
    54    27    49    1
    55    27    50    1
    56    28    54    1
    57    28    55    1
    58    28    56    1
