@<TRIPOS>MOLECULE
IMPHY008988
 71 74 0 0 0
SMALL
GASTEIGER

@<TRIPOS>ATOM
      1 O           6.3465   -1.2621    0.0000 O.3     1  UNL1       -0.5055
      2 O           9.0458    1.2621    0.0000 O.3     1  UNL1       -0.5055
      3 O           2.8660    1.7725    0.0000 O.3     1  UNL1       -0.4911
      4 O          12.5263   -1.7725    0.0000 O.3     1  UNL1       -0.5031
      5 O           2.8660   -0.2275    0.0000 O.3     1  UNL1       -0.5028
      6 O          12.5263    0.2275    0.0000 O.3     1  UNL1       -0.5028
      7 O           3.7320   -1.7275    0.0000 O.2     1  UNL1       -0.2956
      8 O          11.6603    1.7275    0.0000 O.2     1  UNL1       -0.2956
      9 C           7.2641    0.2517    0.0000 C.ar    1  UNL1        0.0309
     10 C           5.4641    1.2725    0.0000 C.ar    1  UNL1       -0.0063
     11 C           8.1282   -0.2517    0.0000 C.ar    1  UNL1        0.0309
     12 C           4.5981    1.7725    0.0000 C.ar    1  UNL1        0.0083
     13 C           9.9282   -1.2725    0.0000 C.ar    1  UNL1       -0.0063
     14 C           5.4641    0.2725    0.0000 C.ar    1  UNL1        0.0384
     15 C           9.9282   -0.2725    0.0000 C.ar    1  UNL1        0.0384
     16 C          10.7942   -1.7725    0.0000 C.ar    1  UNL1        0.0081
     17 C           4.5981    2.7725    0.0000 C.3     1  UNL1       -0.0174
     18 C           7.2641    1.2933    0.0000 C.ar    1  UNL1       -0.0385
     19 C           6.3580   -0.2622    0.0000 C.ar    1  UNL1        0.1334
     20 C           8.1282   -1.2933    0.0000 C.ar    1  UNL1       -0.0385
     21 C           9.0343    0.2622    0.0000 C.ar    1  UNL1        0.1334
     22 C          10.7942   -2.7725    0.0000 C.3     1  UNL1       -0.0174
     23 C           6.3580    1.8071    0.0000 C.ar    1  UNL1       -0.0499
     24 C           9.0343   -1.8071    0.0000 C.ar    1  UNL1       -0.0499
     25 C           4.5981   -0.2275    0.0000 C.ar    1  UNL1        0.0704
     26 C           3.7320    1.2725    0.0000 C.ar    1  UNL1        0.1660
     27 C          10.7942    0.2275    0.0000 C.ar    1  UNL1        0.0704
     28 C          11.6603   -1.2725    0.0000 C.ar    1  UNL1        0.1630
     29 C           3.7320    0.2725    0.0000 C.ar    1  UNL1        0.1698
     30 C          11.6603   -0.2725    0.0000 C.ar    1  UNL1        0.1696
     31 C           3.7320    3.2725    0.0000 C.3     1  UNL1       -0.0585
     32 C           5.4641    3.2725    0.0000 C.3     1  UNL1       -0.0585
     33 C           8.1282    1.7966    0.0000 C.3     1  UNL1       -0.0390
     34 C           7.2641   -1.7966    0.0000 C.3     1  UNL1       -0.0390
     35 C          11.6603   -3.2725    0.0000 C.3     1  UNL1       -0.0585
     36 C           9.9282   -3.2725    0.0000 C.3     1  UNL1       -0.0585
     37 C           4.5981   -1.2275    0.0000 C.2     1  UNL1        0.1545
     38 C          10.7942    1.2275    0.0000 C.2     1  UNL1        0.1545
     39 C           2.0000    1.2725    0.0000 C.3     1  UNL1        0.0790
     40 H           4.5981    3.3925    0.0000 H       1  UNL1        0.0345
     41 H          10.2573   -2.4625    0.0000 H       1  UNL1        0.0345
     42 H           6.3509    2.4271    0.0000 H       1  UNL1        0.0627
     43 H           9.0414   -2.4271    0.0000 H       1  UNL1        0.0627
     44 H           5.7741    2.7356    0.0000 H       1  UNL1        0.0235
     45 H           6.0010    3.5825    0.0000 H       1  UNL1        0.0235
     46 H           5.1541    3.8094    0.0000 H       1  UNL1        0.0235
     47 H           4.0420    3.8094    0.0000 H       1  UNL1        0.0235
     48 H           3.1951    3.5825    0.0000 H       1  UNL1        0.0235
     49 H           3.4220    2.7356    0.0000 H       1  UNL1        0.0235
     50 H           8.4403    1.2609    0.0000 H       1  UNL1        0.0278
     51 H           8.6639    2.1087    0.0000 H       1  UNL1        0.0278
     52 H           7.8161    2.3324    0.0000 H       1  UNL1        0.0278
     53 H           6.9520   -1.2609    0.0000 H       1  UNL1        0.0278
     54 H           6.7284   -2.1087    0.0000 H       1  UNL1        0.0278
     55 H           7.5762   -2.3324    0.0000 H       1  UNL1        0.0278
     56 H           9.6182   -2.7356    0.0000 H       1  UNL1        0.0235
     57 H           9.3913   -3.5825    0.0000 H       1  UNL1        0.0235
     58 H          10.2382   -3.8094    0.0000 H       1  UNL1        0.0235
     59 H          11.3503   -3.8094    0.0000 H       1  UNL1        0.0235
     60 H          12.1972   -3.5825    0.0000 H       1  UNL1        0.0235
     61 H          11.9703   -2.7356    0.0000 H       1  UNL1        0.0235
     62 H           5.8060   -1.5659    0.0000 H       1  UNL1        0.2922
     63 H           5.1350   -1.5375    0.0000 H       1  UNL1        0.1083
     64 H           9.5863    1.5659    0.0000 H       1  UNL1        0.2922
     65 H          10.2573    1.5375    0.0000 H       1  UNL1        0.1083
     66 H          13.0632   -1.4625    0.0000 H       1  UNL1        0.2923
     67 H           2.3291    0.0825    0.0000 H       1  UNL1        0.2923
     68 H          13.0632   -0.0825    0.0000 H       1  UNL1        0.2923
     69 H           1.6900    1.8094    0.0000 H       1  UNL1        0.0660
     70 H           1.4631    0.9625    0.0000 H       1  UNL1        0.0660
     71 H           2.3100    0.7355    0.0000 H       1  UNL1        0.0660
@<TRIPOS>BOND
     1     1    19    1
     2     1    62    1
     3     2    21    1
     4     2    64    1
     5     3    26    1
     6     3    39    1
     7     4    28    1
     8     4    66    1
     9     5    29    1
    10     5    67    1
    11     6    30    1
    12     6    68    1
    13     7    37    2
    14     8    38    2
    15     9    11    1
    16     9    18   ar
    17     9    19   ar
    18    10    12   ar
    19    10    14   ar
    20    10    23   ar
    21    11    20   ar
    22    11    21   ar
    23    12    17    1
    24    12    26   ar
    25    13    15   ar
    26    13    16   ar
    27    13    24   ar
    28    14    19   ar
    29    14    25   ar
    30    15    21   ar
    31    15    27   ar
    32    16    22    1
    33    16    28   ar
    34    17    31    1
    35    17    32    1
    36    17    40    1
    37    18    23   ar
    38    18    33    1
    39    20    24   ar
    40    20    34    1
    41    22    35    1
    42    22    36    1
    43    22    41    1
    44    23    42    1
    45    24    43    1
    46    25    29   ar
    47    25    37    1
    48    26    29   ar
    49    27    30   ar
    50    27    38    1
    51    28    30   ar
    52    31    47    1
    53    31    48    1
    54    31    49    1
    55    32    44    1
    56    32    45    1
    57    32    46    1
    58    33    50    1
    59    33    51    1
    60    33    52    1
    61    34    53    1
    62    34    54    1
    63    34    55    1
    64    35    59    1
    65    35    60    1
    66    35    61    1
    67    36    56    1
    68    36    57    1
    69    36    58    1
    70    37    63    1
    71    38    65    1
    72    39    69    1
    73    39    70    1
    74    39    71    1
