@<TRIPOS>MOLECULE
IMPHY017955
 11 11 0 0 0
SMALL
GASTEIGER

@<TRIPOS>ATOM
      1 O           3.8288   -8.5064    0.0000 O.3     1  UNL1       -0.2869
      2 C           3.8288   -1.7518    0.0000 C.3     1  UNL1        0.0223
      3 C           3.8288   -3.4405    0.0000 C.ar    1  UNL1       -0.0226
      4 C           5.2917   -0.9030    0.0000 C.3     1  UNL1        0.0047
      5 C           2.3659   -0.9030    0.0000 C.3     1  UNL1        0.0047
      6 C           2.3659   -4.2803    0.0000 C.ar    1  UNL1       -0.0054
      7 C           2.3659   -5.9689    0.0000 C.ar    1  UNL1        0.0168
      8 C           5.2917   -4.2803    0.0000 C.ar    1  UNL1       -0.0010
      9 C           3.8288   -6.8178    0.0000 C.ar    1  UNL1        0.1917
     10 C           5.2917   -5.9689    0.0000 C.ar    1  UNL1        0.0414
     11 C           0.9030   -6.8178    0.0000 C.3     1  UNL1        0.0344
@<TRIPOS>BOND
     1     1     9    1
     2     2     3    1
     3     2     4    1
     4     2     5    1
     5     3     6   ar
     6     3     8   ar
     7     6     7   ar
     8     7     9   ar
     9     7    11    1
    10     8    10   ar
    11     9    10   ar
