@<TRIPOS>MOLECULE
IMPHY011810
 52 55 0 0 0
SMALL
GASTEIGER

@<TRIPOS>ATOM
      1 O           4.6557    0.2014    0.0000 O.3     1  UNL1       -0.3712
      2 O           7.7244    0.2014    0.0000 O.3     1  UNL1       -0.3712
      3 O           2.6691    3.3283    0.0000 O.3     1  UNL1       -0.4913
      4 O           5.9637    4.3988    0.0000 O.3     1  UNL1       -0.4913
      5 O           6.4264   -3.9930    0.0000 O.3     1  UNL1       -0.4914
      6 O           4.0074    4.8146    0.0000 O.3     1  UNL1       -0.5009
      7 O           8.3834   -4.4054    0.0000 O.3     1  UNL1       -0.5033
      8 C           6.1945    0.7014    0.0000 C.3     1  UNL1        0.0205
      9 C           6.1945   -0.2986    0.0000 C.3     1  UNL1        0.0205
     10 C           5.2435    1.0104    0.0000 C.3     1  UNL1        0.0892
     11 C           7.1407   -0.6034    0.0000 C.3     1  UNL1        0.0891
     12 C           5.2435   -0.6076    0.0000 C.3     1  UNL1        0.0544
     13 C           7.1407    1.0061    0.0000 C.3     1  UNL1        0.0544
     14 C           4.9344    1.9614    0.0000 C.ar    1  UNL1       -0.0114
     15 C           7.4514   -1.5539    0.0000 C.ar    1  UNL1       -0.0149
     16 C           5.6036    2.7046    0.0000 C.ar    1  UNL1       -0.0104
     17 C           3.9563    2.1694    0.0000 C.ar    1  UNL1       -0.0104
     18 C           6.7836   -2.2982    0.0000 C.ar    1  UNL1       -0.0107
     19 C           8.4299   -1.7601    0.0000 C.ar    1  UNL1       -0.0524
     20 C           3.6473    3.1204    0.0000 C.ar    1  UNL1        0.1653
     21 C           5.2946    3.6556    0.0000 C.ar    1  UNL1        0.1653
     22 C           7.0942   -3.2487    0.0000 C.ar    1  UNL1        0.1616
     23 C           8.7406   -2.7106    0.0000 C.ar    1  UNL1       -0.0162
     24 C           4.3164    3.8636    0.0000 C.ar    1  UNL1        0.2010
     25 C           8.0727   -3.4549    0.0000 C.ar    1  UNL1        0.1585
     26 C           2.0000    2.5852    0.0000 C.3     1  UNL1        0.0790
     27 C           6.9418    4.1909    0.0000 C.3     1  UNL1        0.0790
     28 C           6.7370   -4.9435    0.0000 C.3     1  UNL1        0.0790
     29 H           6.1956    1.5514    0.0000 H       1  UNL1        0.0356
     30 H           6.1956   -1.1486    0.0000 H       1  UNL1        0.0356
     31 H           4.6311    1.1074    0.0000 H       1  UNL1        0.0650
     32 H           7.7532   -0.6996    0.0000 H       1  UNL1        0.0650
     33 H           4.7065   -0.9176    0.0000 H       1  UNL1        0.0564
     34 H           5.4956   -1.1740    0.0000 H       1  UNL1        0.0564
     35 H           7.6781    1.3153    0.0000 H       1  UNL1        0.0564
     36 H           6.8897    1.5730    0.0000 H       1  UNL1        0.0564
     37 H           6.2100    2.5757    0.0000 H       1  UNL1        0.0659
     38 H           3.5414    1.7086    0.0000 H       1  UNL1        0.0659
     39 H           6.1769   -2.1703    0.0000 H       1  UNL1        0.0659
     40 H           8.8440   -1.2986    0.0000 H       1  UNL1        0.0622
     41 H           9.3472   -2.8385    0.0000 H       1  UNL1        0.0655
     42 H           3.4009    4.9435    0.0000 H       1  UNL1        0.2924
     43 H           8.9901   -4.5333    0.0000 H       1  UNL1        0.2923
     44 H           1.5392    3.0000    0.0000 H       1  UNL1        0.0660
     45 H           1.5851    2.1244    0.0000 H       1  UNL1        0.0660
     46 H           2.4608    2.1703    0.0000 H       1  UNL1        0.0660
     47 H           6.8129    3.5844    0.0000 H       1  UNL1        0.0660
     48 H           7.5483    4.0620    0.0000 H       1  UNL1        0.0660
     49 H           7.0707    4.7973    0.0000 H       1  UNL1        0.0660
     50 H           6.1477   -5.1361    0.0000 H       1  UNL1        0.0660
     51 H           6.9296   -5.5328    0.0000 H       1  UNL1        0.0660
     52 H           7.3264   -4.7509    0.0000 H       1  UNL1        0.0660
@<TRIPOS>BOND
     1     1    10    1
     2     1    12    1
     3     2    11    1
     4     2    13    1
     5     3    20    1
     6     3    26    1
     7     4    21    1
     8     4    27    1
     9     5    22    1
    10     5    28    1
    11     6    24    1
    12     6    42    1
    13     7    25    1
    14     7    43    1
    15     8     9    1
    16     8    10    1
    17     8    13    1
    18     8    29    1
    19     9    11    1
    20     9    12    1
    21     9    30    1
    22    10    14    1
    23    10    31    1
    24    11    15    1
    25    11    32    1
    26    12    33    1
    27    12    34    1
    28    13    35    1
    29    13    36    1
    30    14    16   ar
    31    14    17   ar
    32    15    18   ar
    33    15    19   ar
    34    16    21   ar
    35    16    37    1
    36    17    20   ar
    37    17    38    1
    38    18    22   ar
    39    18    39    1
    40    19    23   ar
    41    19    40    1
    42    20    24   ar
    43    21    24   ar
    44    22    25   ar
    45    23    25   ar
    46    23    41    1
    47    26    44    1
    48    26    45    1
    49    26    46    1
    50    27    47    1
    51    27    48    1
    52    27    49    1
    53    28    50    1
    54    28    51    1
    55    28    52    1
