@<TRIPOS>MOLECULE
IMPHY013731
 38 41 0 0 0
SMALL
GASTEIGER

@<TRIPOS>ATOM
      1 O           2.9182   -0.1578    0.0000 O.3     1  UNL1       -0.4907
      2 O           4.3455   -3.3971    0.0000 O.3     1  UNL1       -0.4907
      3 O           2.6884   -2.1931    0.0000 O.3     1  UNL1       -0.4885
      4 O           6.5115    3.2692    0.0000 O.3     1  UNL1       -0.5067
      5 N           7.1527   -0.8769    0.0000 N.ar    1  UNL1       -0.2543
      6 C           5.4874   -0.9337    0.0000 C.ar    1  UNL1        0.0231
      7 C           4.6784   -0.3459    0.0000 C.ar    1  UNL1        0.0380
      8 C           4.9874    0.6051    0.0000 C.ar    1  UNL1       -0.0042
      9 C           6.2964   -0.3459    0.0000 C.ar    1  UNL1        0.0802
     10 C           5.9874    0.6051    0.0000 C.ar    1  UNL1        0.0122
     11 C           5.3945   -1.9712    0.0000 C.ar    1  UNL1        0.0317
     12 C           3.7204   -0.7549    0.0000 C.ar    1  UNL1        0.1735
     13 C           4.4462   -2.4022    0.0000 C.ar    1  UNL1        0.1730
     14 C           3.6035   -1.7899    0.0000 C.ar    1  UNL1        0.2048
     15 C           4.4527    1.4991    0.0000 C.ar    1  UNL1       -0.0498
     16 C           6.5220    1.4991    0.0000 C.ar    1  UNL1       -0.0104
     17 C           6.2981   -2.4169    0.0000 C.ar    1  UNL1       -0.0322
     18 C           7.1535   -1.8845    0.0000 C.ar    1  UNL1        0.0290
     19 C           6.0082    2.4051    0.0000 C.ar    1  UNL1        0.1175
     20 C           4.9666    2.4051    0.0000 C.ar    1  UNL1       -0.0196
     21 C           2.0000   -0.5539    0.0000 C.3     1  UNL1        0.0790
     22 C           3.4335   -3.8074    0.0000 C.3     1  UNL1        0.0790
     23 C           2.5800   -3.1872    0.0000 C.3     1  UNL1        0.0791
     24 H           3.8328    1.4919    0.0000 H       1  UNL1        0.0625
     25 H           7.1420    1.4919    0.0000 H       1  UNL1        0.0661
     26 H           6.3286   -3.0361    0.0000 H       1  UNL1        0.0640
     27 H           7.6956   -2.1853    0.0000 H       1  UNL1        0.0830
     28 H           4.6545    2.9409    0.0000 H       1  UNL1        0.0654
     29 H           1.7544    0.0154    0.0000 H       1  UNL1        0.0660
     30 H           1.4307   -0.7995    0.0000 H       1  UNL1        0.0660
     31 H           2.2456   -1.1232    0.0000 H       1  UNL1        0.0660
     32 H           3.1792   -3.2419    0.0000 H       1  UNL1        0.0660
     33 H           2.8681   -4.0617    0.0000 H       1  UNL1        0.0660
     34 H           3.6879   -4.3728    0.0000 H       1  UNL1        0.0660
     35 H           1.9637   -3.1201    0.0000 H       1  UNL1        0.0660
     36 H           2.5128   -3.8036    0.0000 H       1  UNL1        0.0660
     37 H           3.1964   -3.2544    0.0000 H       1  UNL1        0.0660
     38 H           6.2036    3.8074    0.0000 H       1  UNL1        0.2921
@<TRIPOS>BOND
     1     1    12    1
     2     1    21    1
     3     2    13    1
     4     2    22    1
     5     3    14    1
     6     3    23    1
     7     4    19    1
     8     4    38    1
     9     5     9   ar
    10     5    18   ar
    11     6     7   ar
    12     6     9   ar
    13     6    11   ar
    14     7     8    1
    15     7    12   ar
    16     8    10   ar
    17     8    15   ar
    18     9    10    1
    19    10    16   ar
    20    11    13   ar
    21    11    17   ar
    22    12    14   ar
    23    13    14   ar
    24    15    20   ar
    25    15    24    1
    26    16    19   ar
    27    16    25    1
    28    17    18   ar
    29    17    26    1
    30    18    27    1
    31    19    20   ar
    32    20    28    1
    33    21    29    1
    34    21    30    1
    35    21    31    1
    36    22    32    1
    37    22    33    1
    38    22    34    1
    39    23    35    1
    40    23    36    1
    41    23    37    1
