@<TRIPOS>MOLECULE
IMPHY005480
 66 68 0 0 0
SMALL
GASTEIGER

@<TRIPOS>ATOM
      1 O           5.0298    0.1816    0.0000 O.3     1  UNL1       -0.3363
      2 O           4.8086    1.5784    0.0000 O.3     1  UNL1       -0.3419
      3 O           6.3031   -1.4739    0.0000 O.3     1  UNL1       -0.3419
      4 O           6.0819   -2.8707    0.0000 O.3     1  UNL1       -0.3363
      5 O           6.0819    3.2340    0.0000 O.3     1  UNL1       -0.3364
      6 O           2.4608    0.4907    0.0000 O.3     1  UNL1       -0.3837
      7 O           3.1330   -1.5784    0.0000 O.3     1  UNL1       -0.3864
      8 O           8.6510   -2.5617    0.0000 O.3     1  UNL1       -0.3837
      9 O           7.9787   -4.6308    0.0000 O.3     1  UNL1       -0.3864
     10 O           7.9787    1.4739    0.0000 O.3     1  UNL1       -0.3864
     11 O           8.6510    3.5430    0.0000 O.3     1  UNL1       -0.3837
     12 O           6.3031    4.6308    0.0000 O.3     1  UNL1       -0.3608
     13 O           4.0398    2.4920    0.0000 O.3     1  UNL1       -0.3896
     14 O           8.4732   -1.5784    0.0000 O.3     1  UNL1       -0.3896
     15 O           6.2099   -5.5443    0.0000 O.3     1  UNL1       -0.3924
     16 O           7.0720    5.5443    0.0000 O.3     1  UNL1       -0.3896
     17 C           4.2208    0.7694    0.0000 C.3     1  UNL1        0.2230
     18 C           4.7208   -0.7694    0.0000 C.3     1  UNL1        0.1138
     19 C           3.4118    0.1816    0.0000 C.3     1  UNL1        0.1394
     20 C           3.7208   -0.7694    0.0000 C.3     1  UNL1        0.1145
     21 C           6.8909   -2.2829    0.0000 C.3     1  UNL1        0.2230
     22 C           7.6999   -2.8707    0.0000 C.3     1  UNL1        0.1394
     23 C           6.3909    2.2829    0.0000 C.3     1  UNL1        0.1138
     24 C           5.3086   -1.5784    0.0000 C.3     1  UNL1        0.0799
     25 C           7.3909   -3.8218    0.0000 C.3     1  UNL1        0.1145
     26 C           7.3909    2.2829    0.0000 C.3     1  UNL1        0.1145
     27 C           6.3909   -3.8218    0.0000 C.3     1  UNL1        0.1134
     28 C           7.6999    3.2340    0.0000 C.3     1  UNL1        0.1392
     29 C           6.8909    3.8218    0.0000 C.3     1  UNL1        0.2205
     30 C           5.8031    1.4739    0.0000 C.3     1  UNL1        0.0799
     31 C           3.6330    1.5784    0.0000 C.3     1  UNL1        0.1008
     32 C           7.4787   -1.4739    0.0000 C.3     1  UNL1        0.1008
     33 C           5.8031   -4.6308    0.0000 C.3     1  UNL1        0.0730
     34 C           7.4787    4.6308    0.0000 C.3     1  UNL1        0.1006
     35 H           5.3332   -0.6724    0.0000 H       1  UNL1        0.0647
     36 H           2.9734   -0.2568    0.0000 H       1  UNL1        0.0675
     37 H           3.1085   -0.6724    0.0000 H       1  UNL1        0.0648
     38 H           7.7969   -2.2583    0.0000 H       1  UNL1        0.0675
     39 H           5.7786    2.3799    0.0000 H       1  UNL1        0.0647
     40 H           4.7514   -1.8502    0.0000 H       1  UNL1        0.0588
     41 H           5.4795   -2.1744    0.0000 H       1  UNL1        0.0588
     42 H           8.0033   -3.7248    0.0000 H       1  UNL1        0.0648
     43 H           8.0033    2.3799    0.0000 H       1  UNL1        0.0648
     44 H           5.7786   -3.7248    0.0000 H       1  UNL1        0.0647
     45 H           7.7969    3.8464    0.0000 H       1  UNL1        0.0675
     46 H           5.6322    0.8779    0.0000 H       1  UNL1        0.0588
     47 H           6.3604    1.2021    0.0000 H       1  UNL1        0.0588
     48 H           3.1190    1.9251    0.0000 H       1  UNL1        0.0612
     49 H           3.2024    1.1324    0.0000 H       1  UNL1        0.0612
     50 H           7.6496   -0.8779    0.0000 H       1  UNL1        0.0612
     51 H           6.9214   -1.2021    0.0000 H       1  UNL1        0.0612
     52 H           5.3724   -4.1848    0.0000 H       1  UNL1        0.0584
     53 H           5.2891   -4.9775    0.0000 H       1  UNL1        0.0584
     54 H           7.9094    4.1848    0.0000 H       1  UNL1        0.0612
     55 H           7.9927    4.9775    0.0000 H       1  UNL1        0.0612
     56 H           2.0000    0.0758    0.0000 H       1  UNL1        0.2101
     57 H           3.3852   -2.1448    0.0000 H       1  UNL1        0.2100
     58 H           9.1117   -2.9766    0.0000 H       1  UNL1        0.2101
     59 H           8.5953   -4.5660    0.0000 H       1  UNL1        0.2100
     60 H           8.5953    1.5387    0.0000 H       1  UNL1        0.2100
     61 H           9.1117    3.1281    0.0000 H       1  UNL1        0.2101
     62 H           5.6865    4.5660    0.0000 H       1  UNL1        0.2129
     63 H           3.6754    2.9936    0.0000 H       1  UNL1        0.2096
     64 H           8.8376   -1.0768    0.0000 H       1  UNL1        0.2096
     65 H           5.8454   -6.0459    0.0000 H       1  UNL1        0.2095
     66 H           7.4364    6.0459    0.0000 H       1  UNL1        0.2096
@<TRIPOS>BOND
     1     1    17    1
     2     1    18    1
     3    17     2    1
     4     2    30    1
     5    21     3    1
     6     3    24    1
     7     4    21    1
     8     4    27    1
     9     5    23    1
    10     5    29    1
    11    19     6    1
    12     6    56    1
    13    20     7    1
    14     7    57    1
    15    22     8    1
    16     8    58    1
    17    25     9    1
    18     9    59    1
    19    26    10    1
    20    10    60    1
    21    28    11    1
    22    11    61    1
    23    29    12    1
    24    12    62    1
    25    13    31    1
    26    13    63    1
    27    14    32    1
    28    14    64    1
    29    15    33    1
    30    15    65    1
    31    16    34    1
    32    16    66    1
    33    17    19    1
    34    17    31    1
    35    18    20    1
    36    18    24    1
    37    18    35    1
    38    19    20    1
    39    19    36    1
    40    20    37    1
    41    21    22    1
    42    21    32    1
    43    22    25    1
    44    22    38    1
    45    23    26    1
    46    23    30    1
    47    23    39    1
    48    24    40    1
    49    24    41    1
    50    25    27    1
    51    25    42    1
    52    26    28    1
    53    26    43    1
    54    27    33    1
    55    27    44    1
    56    28    29    1
    57    28    45    1
    58    29    34    1
    59    30    46    1
    60    30    47    1
    61    31    48    1
    62    31    49    1
    63    32    50    1
    64    32    51    1
    65    33    52    1
    66    33    53    1
    67    34    54    1
    68    34    55    1
