@<TRIPOS>MOLECULE
IMPHY001577
 14 13 0 0 0
SMALL
GASTEIGER

@<TRIPOS>ATOM
      1 O           3.7320   -0.7500    0.0000 O.2     1  UNL1       -0.2927
      2 C           4.5981    0.7500    0.0000 C.3     1  UNL1        0.0070
      3 C           5.4641    0.2500    0.0000 C.3     1  UNL1       -0.0583
      4 C           3.7320    0.2500    0.0000 C.2     1  UNL1        0.1553
      5 C           2.8660    0.7500    0.0000 C.2     1  UNL1       -0.0263
      6 C           2.0000    0.2500    0.0000 C.2     1  UNL1       -0.0954
      7 H           4.9966    1.2250    0.0000 H       1  UNL1        0.0342
      8 H           4.1996    1.2250    0.0000 H       1  UNL1        0.0342
      9 H           5.1541   -0.2869    0.0000 H       1  UNL1        0.0234
     10 H           6.0010   -0.0600    0.0000 H       1  UNL1        0.0234
     11 H           5.7741    0.7869    0.0000 H       1  UNL1        0.0234
     12 H           2.8660    1.3700    0.0000 H       1  UNL1        0.0646
     13 H           1.4631    0.5600    0.0000 H       1  UNL1        0.0536
     14 H           2.0000   -0.3700    0.0000 H       1  UNL1        0.0536
@<TRIPOS>BOND
     1     1     4    2
     2     2     3    1
     3     2     4    1
     4     2     7    1
     5     2     8    1
     6     3     9    1
     7     3    10    1
     8     3    11    1
     9     4     5    1
    10     5     6    2
    11     5    12    1
    12     6    13    1
    13     6    14    1
