@<TRIPOS>MOLECULE
IMPHY008122
 55 58 0 0 0
SMALL
GASTEIGER

@<TRIPOS>ATOM
      1 O           6.3582    0.9605    0.0000 O.2     1  UNL1       -0.4539
      2 O           8.5022    3.0290    0.0000 O.3     1  UNL1       -0.4864
      3 O           2.8687    1.8648    0.0000 O.3     1  UNL1       -0.5064
      4 O          11.1418    0.6848    0.0000 O.3     1  UNL1       -0.5064
      5 C           6.8550    2.4938    0.0000 C.ar    1  UNL1        0.0432
      6 C           7.1640    1.5427    0.0000 C.ar    1  UNL1        0.1462
      7 C           5.8609    2.4912    0.0000 C.ar    1  UNL1        0.0277
      8 C           5.5545    1.5455    0.0000 C.ar    1  UNL1        0.1430
      9 C           8.1421    1.3348    0.0000 C.ar    1  UNL1        0.0598
     10 C           7.5241    3.2369    0.0000 C.3     1  UNL1        0.1187
     11 C           4.5453    1.3138    0.0000 C.ar    1  UNL1        0.0405
     12 C           8.8113    2.0780    0.0000 C.ar    1  UNL1        0.1351
     13 C           8.4487    0.3393    0.0000 C.ar    1  UNL1       -0.0406
     14 C           5.1793    3.2707    0.0000 C.ar    1  UNL1       -0.0471
     15 C           9.4659    0.1149    0.0000 C.ar    1  UNL1       -0.0013
     16 C           4.2482    0.3589    0.0000 C.3     1  UNL1       -0.0023
     17 C           3.8459    2.0773    0.0000 C.ar    1  UNL1        0.1238
     18 C           9.8334    1.8771    0.0000 C.ar    1  UNL1        0.0225
     19 C           4.1650    3.0624    0.0000 C.ar    1  UNL1       -0.0191
     20 C          10.1629    0.8890    0.0000 C.ar    1  UNL1        0.1238
     21 C           9.7712   -0.8373    0.0000 C.3     1  UNL1       -0.0058
     22 C           3.2727    0.1389    0.0000 C.2     1  UNL1       -0.0807
     23 C           9.0992   -1.5779    0.0000 C.2     1  UNL1       -0.0809
     24 C           2.9755   -0.8159    0.0000 C.2     1  UNL1       -0.0793
     25 C           9.4046   -2.5301    0.0000 C.2     1  UNL1       -0.0793
     26 C           2.0000   -1.0360    0.0000 C.3     1  UNL1       -0.0440
     27 C           3.6538   -1.5507    0.0000 C.3     1  UNL1       -0.0440
     28 C           8.7326   -3.2707    0.0000 C.3     1  UNL1       -0.0440
     29 C          10.3819   -2.7418    0.0000 C.3     1  UNL1       -0.0440
     30 H           7.7564    3.8118    0.0000 H       1  UNL1        0.0749
     31 H           6.9983    3.5655    0.0000 H       1  UNL1        0.0749
     32 H           8.0285   -0.1166    0.0000 H       1  UNL1        0.0630
     33 H           5.3772    3.8583    0.0000 H       1  UNL1        0.0626
     34 H           4.2775   -0.2604    0.0000 H       1  UNL1        0.0358
     35 H           4.8631    0.2803    0.0000 H       1  UNL1        0.0358
     36 H          10.2429    2.3426    0.0000 H       1  UNL1        0.0691
     37 H           3.7515    3.5243    0.0000 H       1  UNL1        0.0654
     38 H          10.1510   -1.3274    0.0000 H       1  UNL1        0.0357
     39 H          10.3198   -0.5484    0.0000 H       1  UNL1        0.0357
     40 H           2.8521    0.5944    0.0000 H       1  UNL1        0.0575
     41 H           8.4933   -1.4467    0.0000 H       1  UNL1        0.0575
     42 H           2.4517    2.3236    0.0000 H       1  UNL1        0.2921
     43 H          11.5549    1.1472    0.0000 H       1  UNL1        0.2921
     44 H           1.8636   -0.4312    0.0000 H       1  UNL1        0.0274
     45 H           1.3952   -1.1724    0.0000 H       1  UNL1        0.0274
     46 H           2.1364   -1.6408    0.0000 H       1  UNL1        0.0274
     47 H           3.1982   -1.9713    0.0000 H       1  UNL1        0.0274
     48 H           4.0744   -2.0063    0.0000 H       1  UNL1        0.0274
     49 H           4.1094   -1.1302    0.0000 H       1  UNL1        0.0274
     50 H           8.2734   -2.8541    0.0000 H       1  UNL1        0.0274
     51 H          10.2507   -3.3478    0.0000 H       1  UNL1        0.0274
     52 H          10.9879   -2.8731    0.0000 H       1  UNL1        0.0274
     53 H          10.5132   -2.1359    0.0000 H       1  UNL1        0.0274
     54 H           8.3160   -3.7298    0.0000 H       1  UNL1        0.0274
     55 H           9.1917   -3.6873    0.0000 H       1  UNL1        0.0274
@<TRIPOS>BOND
     1     1     6   ar
     2     1     8   ar
     3     2    10    1
     4     2    12    1
     5     3    17    1
     6     3    42    1
     7     4    20    1
     8     4    43    1
     9     5     6   ar
    10     5     7   ar
    11     5    10    1
    12     6     9    1
    13     7     8   ar
    14     7    14   ar
    15     8    11   ar
    16     9    12   ar
    17     9    13   ar
    18    10    30    1
    19    10    31    1
    20    11    16    1
    21    11    17   ar
    22    12    18   ar
    23    13    15   ar
    24    13    32    1
    25    14    19   ar
    26    14    33    1
    27    15    20   ar
    28    15    21    1
    29    16    22    1
    30    16    34    1
    31    16    35    1
    32    17    19   ar
    33    18    20   ar
    34    18    36    1
    35    19    37    1
    36    21    23    1
    37    21    38    1
    38    21    39    1
    39    22    24    2
    40    22    40    1
    41    23    25    2
    42    23    41    1
    43    24    26    1
    44    24    27    1
    45    25    28    1
    46    25    29    1
    47    26    44    1
    48    26    45    1
    49    26    46    1
    50    27    47    1
    51    27    48    1
    52    27    49    1
    53    28    50    1
    54    28    54    1
    55    28    55    1
    56    29    51    1
    57    29    52    1
    58    29    53    1
