@<TRIPOS>MOLECULE
IMPHY000184
 75 79 0 0 0
SMALL
GASTEIGER

@<TRIPOS>ATOM
      1 O           2.5357   -3.5601    0.0000 O.3     1  UNL1       -0.3912
      2 O          11.4265    2.2116    0.0000 O.3     1  UNL1       -0.4229
      3 O          12.2382    3.7980    0.0000 O.2     1  UNL1       -0.2449
      4 C           7.9288   -0.5077    0.0000 C.3     1  UNL1       -0.0159
      5 C           7.9288   -1.5078    0.0000 C.3     1  UNL1       -0.0011
      6 C           8.8750   -0.2030    0.0000 C.3     1  UNL1       -0.0284
      7 C           5.2868   -2.0146    0.0000 C.3     1  UNL1       -0.0033
      8 C           5.2787   -3.0562    0.0000 C.3     1  UNL1       -0.0207
      9 C           8.8750   -1.8125    0.0000 C.3     1  UNL1       -0.0428
     10 C           7.0628   -2.0078    0.0000 C.2     1  UNL1       -0.0414
     11 C           6.1968   -1.5078    0.0000 C.2     1  UNL1       -0.0416
     12 C           9.4586   -1.0078    0.0000 C.3     1  UNL1       -0.0483
     13 C           7.0628   -0.0077    0.0000 C.3     1  UNL1       -0.0277
     14 C           4.3433   -3.6059    0.0000 C.3     1  UNL1       -0.0050
     15 C           4.3599   -1.4505    0.0000 C.3     1  UNL1       -0.0410
     16 C           6.1808   -3.5770    0.0000 C.3     1  UNL1       -0.0300
     17 C           7.9288    0.4923    0.0000 C.3     1  UNL1       -0.0582
     18 C           6.1968   -0.5077    0.0000 C.2     1  UNL1       -0.0795
     19 C           7.9288   -2.5078    0.0000 C.3     1  UNL1       -0.0550
     20 C           9.1857    0.7475    0.0000 C.3     1  UNL1       -0.0186
     21 C           7.0789   -3.0493    0.0000 C.2     1  UNL1       -0.0797
     22 C           3.4037   -3.0634    0.0000 C.3     1  UNL1        0.0607
     23 C           3.4120   -1.9785    0.0000 C.3     1  UNL1       -0.0255
     24 C           5.2945   -1.0146    0.0000 C.3     1  UNL1       -0.0553
     25 C           3.8467   -4.4739    0.0000 C.3     1  UNL1       -0.0572
     26 C           4.8466   -4.4700    0.0000 C.3     1  UNL1       -0.0572
     27 C           8.5179    1.4918    0.0000 C.3     1  UNL1       -0.0586
     28 C          10.1642    0.9537    0.0000 C.2     1  UNL1       -0.0384
     29 C          10.4749    1.9042    0.0000 C.2     1  UNL1        0.1288
     30 C           9.8885    2.7143    0.0000 C.2     1  UNL1       -0.0098
     31 C          10.4777    3.5223    0.0000 C.2     1  UNL1        0.0374
     32 C          11.4282    3.2116    0.0000 C.2     1  UNL1        0.3402
     33 C          10.1703    4.4739    0.0000 C.3     1  UNL1       -0.0328
     34 H           9.7148   -0.0711    0.0000 H       1  UNL1        0.0312
     35 H           5.2820   -3.9062    0.0000 H       1  UNL1        0.0318
     36 H           8.6240   -2.3794    0.0000 H       1  UNL1        0.0274
     37 H           9.4124   -2.1217    0.0000 H       1  UNL1        0.0274
     38 H           9.9195   -1.4225    0.0000 H       1  UNL1        0.0269
     39 H           9.9195   -0.5930    0.0000 H       1  UNL1        0.0269
     40 H           7.4613    0.4672    0.0000 H       1  UNL1        0.0313
     41 H           6.6643    0.4672    0.0000 H       1  UNL1        0.0313
     42 H           4.7681   -0.9839    0.0000 H       1  UNL1        0.0275
     43 H           3.9700   -0.9685    0.0000 H       1  UNL1        0.0275
     44 H           5.7835   -4.0530    0.0000 H       1  UNL1        0.0311
     45 H           6.5818   -4.0499    0.0000 H       1  UNL1        0.0311
     46 H           8.5488    0.4923    0.0000 H       1  UNL1        0.0236
     47 H           7.9288    1.1122    0.0000 H       1  UNL1        0.0236
     48 H           7.3088    0.4923    0.0000 H       1  UNL1        0.0236
     49 H           5.6598   -0.1977    0.0000 H       1  UNL1        0.0575
     50 H           7.3088   -2.5078    0.0000 H       1  UNL1        0.0238
     51 H           7.9288   -3.1277    0.0000 H       1  UNL1        0.0238
     52 H           8.5488   -2.5078    0.0000 H       1  UNL1        0.0238
     53 H           9.3783    1.3368    0.0000 H       1  UNL1        0.0344
     54 H           7.6193   -3.3530    0.0000 H       1  UNL1        0.0575
     55 H           2.8686   -2.7503    0.0000 H       1  UNL1        0.0599
     56 H           3.2075   -1.3932    0.0000 H       1  UNL1        0.0290
     57 H           2.8004   -2.0798    0.0000 H       1  UNL1        0.0290
     58 H           5.9145   -1.0194    0.0000 H       1  UNL1        0.0238
     59 H           5.2993   -0.3946    0.0000 H       1  UNL1        0.0238
     60 H           4.6745   -1.0098    0.0000 H       1  UNL1        0.0238
     61 H           4.3109   -4.7821    0.0000 H       1  UNL1        0.0236
     62 H           5.1587   -5.0058    0.0000 H       1  UNL1        0.0236
     63 H           5.3824   -4.1579    0.0000 H       1  UNL1        0.0236
     64 H           3.3085   -4.1659    0.0000 H       1  UNL1        0.0236
     65 H           3.5387   -5.0120    0.0000 H       1  UNL1        0.0236
     66 H           4.3848   -4.7818    0.0000 H       1  UNL1        0.0236
     67 H           8.9793    1.9059    0.0000 H       1  UNL1        0.0235
     68 H           8.1038    1.9533    0.0000 H       1  UNL1        0.0235
     69 H           8.0564    1.0777    0.0000 H       1  UNL1        0.0235
     70 H          10.5783    0.4923    0.0000 H       1  UNL1        0.0611
     71 H           2.0000   -3.2480    0.0000 H       1  UNL1        0.2098
     72 H           9.2685    2.7154    0.0000 H       1  UNL1        0.0659
     73 H          10.7603    4.6644    0.0000 H       1  UNL1        0.0280
     74 H           9.9797    5.0639    0.0000 H       1  UNL1        0.0280
     75 H           9.5803    4.2833    0.0000 H       1  UNL1        0.0280
@<TRIPOS>BOND
     1    22     1    1
     2     1    71    1
     3     2    29    1
     4     2    32    1
     5     3    32    2
     6     4     5    1
     7     4     6    1
     8     4    13    1
     9     4    17    1
    10     5     9    1
    11     5    10    1
    12     5    19    1
    13     6    12    1
    14     6    20    1
    15     6    34    1
    16     7     8    1
    17     7    11    1
    18     7    15    1
    19     7    24    1
    20     8    14    1
    21     8    16    1
    22     8    35    1
    23     9    12    1
    24     9    36    1
    25     9    37    1
    26    10    11    1
    27    10    21    2
    28    11    18    2
    29    12    38    1
    30    12    39    1
    31    13    18    1
    32    13    40    1
    33    13    41    1
    34    14    22    1
    35    14    25    1
    36    14    26    1
    37    15    23    1
    38    15    42    1
    39    15    43    1
    40    16    21    1
    41    16    44    1
    42    16    45    1
    43    17    46    1
    44    17    47    1
    45    17    48    1
    46    18    49    1
    47    19    50    1
    48    19    51    1
    49    19    52    1
    50    20    27    1
    51    20    28    1
    52    20    53    1
    53    21    54    1
    54    22    23    1
    55    22    55    1
    56    23    56    1
    57    23    57    1
    58    24    58    1
    59    24    59    1
    60    24    60    1
    61    25    64    1
    62    25    65    1
    63    25    66    1
    64    26    61    1
    65    26    62    1
    66    26    63    1
    67    27    67    1
    68    27    68    1
    69    27    69    1
    70    28    29    2
    71    28    70    1
    72    29    30    1
    73    30    31    2
    74    30    72    1
    75    31    32    1
    76    31    33    1
    77    33    73    1
    78    33    74    1
    79    33    75    1
