@<TRIPOS>MOLECULE
IMPHY016579
 58 57 0 0 0
SMALL
GASTEIGER

@<TRIPOS>ATOM
      1 O           8.9282    0.7500    0.0000 O.3     1  UNL1       -0.4646
      2 O           9.7942   -0.7500    0.0000 O.2     1  UNL1       -0.2508
      3 C           6.3301    0.2500    0.0000 C.3     1  UNL1       -0.0405
      4 C           7.1962    0.7500    0.0000 C.3     1  UNL1       -0.0159
      5 C           5.4641    0.7500    0.0000 C.3     1  UNL1       -0.0469
      6 C          11.5263    0.2500    0.0000 C.3     1  UNL1       -0.0335
      7 C          12.3923    0.7500    0.0000 C.3     1  UNL1       -0.0465
      8 C          10.6603    0.7500    0.0000 C.3     1  UNL1        0.0475
      9 C           8.0622    0.2500    0.0000 C.3     1  UNL1        0.0927
     10 C           6.3301   -0.7500    0.0000 C.3     1  UNL1       -0.0623
     11 C           4.5981    0.2500    0.0000 C.3     1  UNL1       -0.0343
     12 C          13.2583    0.2500    0.0000 C.3     1  UNL1       -0.0343
     13 C          11.5263   -0.7500    0.0000 C.3     1  UNL1       -0.0619
     14 C           9.7942    0.2500    0.0000 C.2     1  UNL1        0.3073
     15 C           3.7320    0.7500    0.0000 C.2     1  UNL1       -0.0853
     16 C          14.1244    0.7500    0.0000 C.2     1  UNL1       -0.0853
     17 C           2.8660    0.2500    0.0000 C.2     1  UNL1       -0.0796
     18 C          14.9904    0.2500    0.0000 C.2     1  UNL1       -0.0796
     19 C           2.0000    0.7500    0.0000 C.3     1  UNL1       -0.0440
     20 C           2.8660   -0.7500    0.0000 C.3     1  UNL1       -0.0440
     21 C          15.8564    0.7500    0.0000 C.3     1  UNL1       -0.0440
     22 C          14.9904   -0.7500    0.0000 C.3     1  UNL1       -0.0440
     23 H           6.8671   -0.0600    0.0000 H       1  UNL1        0.0299
     24 H           7.5947    1.2250    0.0000 H       1  UNL1        0.0301
     25 H           6.7976    1.2250    0.0000 H       1  UNL1        0.0301
     26 H           5.8626    1.2250    0.0000 H       1  UNL1        0.0271
     27 H           5.0656    1.2250    0.0000 H       1  UNL1        0.0271
     28 H          12.0632   -0.0600    0.0000 H       1  UNL1        0.0303
     29 H          12.7908    1.2250    0.0000 H       1  UNL1        0.0271
     30 H          11.9938    1.2250    0.0000 H       1  UNL1        0.0271
     31 H          11.0588    1.2250    0.0000 H       1  UNL1        0.0380
     32 H          10.2617    1.2250    0.0000 H       1  UNL1        0.0380
     33 H           7.6636   -0.2249    0.0000 H       1  UNL1        0.0697
     34 H           8.4607   -0.2249    0.0000 H       1  UNL1        0.0697
     35 H           5.7101   -0.7500    0.0000 H       1  UNL1        0.0232
     36 H           6.3301   -1.3700    0.0000 H       1  UNL1        0.0232
     37 H           6.9501   -0.7500    0.0000 H       1  UNL1        0.0232
     38 H           4.1996   -0.2249    0.0000 H       1  UNL1        0.0307
     39 H           4.9966   -0.2249    0.0000 H       1  UNL1        0.0307
     40 H          12.8598   -0.2249    0.0000 H       1  UNL1        0.0307
     41 H          13.6569   -0.2249    0.0000 H       1  UNL1        0.0307
     42 H          10.9063   -0.7500    0.0000 H       1  UNL1        0.0233
     43 H          11.5263   -1.3700    0.0000 H       1  UNL1        0.0233
     44 H          12.1463   -0.7500    0.0000 H       1  UNL1        0.0233
     45 H           3.7320    1.3700    0.0000 H       1  UNL1        0.0571
     46 H          14.1244    1.3700    0.0000 H       1  UNL1        0.0571
     47 H           2.3100    1.2869    0.0000 H       1  UNL1        0.0274
     48 H           1.4631    1.0600    0.0000 H       1  UNL1        0.0274
     49 H           1.6900    0.2131    0.0000 H       1  UNL1        0.0274
     50 H           2.2460   -0.7500    0.0000 H       1  UNL1        0.0274
     51 H           2.8660   -1.3700    0.0000 H       1  UNL1        0.0274
     52 H           3.4860   -0.7500    0.0000 H       1  UNL1        0.0274
     53 H          16.1664    0.2131    0.0000 H       1  UNL1        0.0274
     54 H          16.3933    1.0600    0.0000 H       1  UNL1        0.0274
     55 H          15.5464    1.2869    0.0000 H       1  UNL1        0.0274
     56 H          14.3704   -0.7500    0.0000 H       1  UNL1        0.0274
     57 H          14.9904   -1.3700    0.0000 H       1  UNL1        0.0274
     58 H          15.6104   -0.7500    0.0000 H       1  UNL1        0.0274
@<TRIPOS>BOND
     1     1     9    1
     2     1    14    1
     3     2    14    2
     4     3     4    1
     5     3     5    1
     6     3    10    1
     7     3    23    1
     8     4     9    1
     9     4    24    1
    10     4    25    1
    11     5    11    1
    12     5    26    1
    13     5    27    1
    14     6     7    1
    15     6     8    1
    16     6    13    1
    17     6    28    1
    18     7    12    1
    19     7    29    1
    20     7    30    1
    21     8    14    1
    22     8    31    1
    23     8    32    1
    24     9    33    1
    25     9    34    1
    26    10    35    1
    27    10    36    1
    28    10    37    1
    29    11    15    1
    30    11    38    1
    31    11    39    1
    32    12    16    1
    33    12    40    1
    34    12    41    1
    35    13    42    1
    36    13    43    1
    37    13    44    1
    38    15    17    2
    39    15    45    1
    40    16    18    2
    41    16    46    1
    42    17    19    1
    43    17    20    1
    44    18    21    1
    45    18    22    1
    46    19    47    1
    47    19    48    1
    48    19    49    1
    49    20    50    1
    50    20    51    1
    51    20    52    1
    52    21    53    1
    53    21    54    1
    54    21    55    1
    55    22    56    1
    56    22    57    1
    57    22    58    1
