@<TRIPOS>MOLECULE
IMPHY013377
 25 24 0 0 0
SMALL
GASTEIGER

@<TRIPOS>ATOM
      1 CL          1.9841    0.0000    0.0000 Cl      1  UNL1        0.0000
      2 O           3.8786    4.7585    0.0000 O.3     2  UNL2       -0.4767
      3 O           3.3434    3.1112    0.0000 O.2     2  UNL2       -0.2446
      4 N           1.3754    3.8106    0.0000 N.4     2  UNL2        0.2491
      5 C           2.1844    4.3984    0.0000 C.3     2  UNL2        0.0791
      6 C           0.5664    4.3984    0.0000 C.3     2  UNL2       -0.0296
      7 C           1.8754    5.3494    0.0000 C.3     2  UNL2        0.0057
      8 C           0.8754    5.3494    0.0000 C.3     2  UNL2       -0.0068
      9 C           0.7876    3.0016    0.0000 C.3     2  UNL2       -0.0407
     10 C           1.9632    3.0016    0.0000 C.3     2  UNL2       -0.0407
     11 C           3.1355    4.0894    0.0000 C.2     2  UNL2        0.3537
     12 H           2.2814    3.7860    0.0000 H       2  UNL2        0.0970
     13 H           0.0000    4.6506    0.0000 H       2  UNL2        0.0815
     14 H           0.2564    3.8615    0.0000 H       2  UNL2        0.0815
     15 H           2.4819    5.4784    0.0000 H       2  UNL2        0.0327
     16 H           1.8106    5.9660    0.0000 H       2  UNL2        0.0327
     17 H           0.9402    5.9660    0.0000 H       2  UNL2        0.0319
     18 H           0.2690    5.4784    0.0000 H       2  UNL2        0.0319
     19 H           0.2860    3.3660    0.0000 H       2  UNL2        0.0778
     20 H           0.4232    2.5000    0.0000 H       2  UNL2        0.0778
     21 H           1.2892    2.6372    0.0000 H       2  UNL2        0.0778
     22 H           1.4616    2.6372    0.0000 H       2  UNL2        0.0778
     23 H           2.3276    2.5000    0.0000 H       2  UNL2        0.0778
     24 H           2.4648    3.3660    0.0000 H       2  UNL2        0.0778
     25 H           4.4683    4.5669    0.0000 H       2  UNL2        0.2953
@<TRIPOS>UNITY_ATOM_ATTR
1 1
charge -1
4 1
charge 1
@<TRIPOS>BOND
     1     2    11    1
     2     2    25    1
     3     3    11    2
     4     4     5    1
     5     4     6    1
     6     4     9    1
     7     4    10    1
     8     5     7    1
     9     5    11    1
    10     5    12    1
    11     6     8    1
    12     6    13    1
    13     6    14    1
    14     7     8    1
    15     7    15    1
    16     7    16    1
    17     8    17    1
    18     8    18    1
    19     9    19    1
    20     9    20    1
    21     9    21    1
    22    10    22    1
    23    10    23    1
    24    10    24    1
