@<TRIPOS>MOLECULE
IMPHY002454
 58 58 0 0 0
SMALL
GASTEIGER

@<TRIPOS>ATOM
      1 O           4.6200   -3.0311    0.0000 O.3     1  UNL1       -0.4604
      2 O           3.1200   -3.8971    0.0000 O.2     1  UNL1       -0.2512
      3 C           4.1200    3.0311    0.0000 C.3     1  UNL1       -0.0167
      4 C           4.6200    2.1651    0.0000 C.3     1  UNL1       -0.0426
      5 C           3.1200    3.0311    0.0000 C.3     1  UNL1       -0.0280
      6 C           5.6200    2.1651    0.0000 C.3     1  UNL1       -0.0315
      7 C           4.6200    3.8971    0.0000 C.2     1  UNL1       -0.0763
      8 C           6.1200    1.2990    0.0000 C.2     1  UNL1       -0.0765
      9 C           2.6200    2.1651    0.0000 C.2     1  UNL1       -0.0845
     10 C           3.1200    1.2990    0.0000 C.2     1  UNL1       -0.0762
     11 C           4.1200    1.2990    0.0000 C.3     1  UNL1       -0.0286
     12 C           6.1200   -0.4330    0.0000 C.3     1  UNL1       -0.0307
     13 C           5.6200   -1.2990    0.0000 C.3     1  UNL1       -0.0251
     14 C           5.6200    0.4330    0.0000 C.2     1  UNL1       -0.0847
     15 C           4.6200    0.4330    0.0000 C.3     1  UNL1       -0.0307
     16 C           4.6200   -1.2990    0.0000 C.2     1  UNL1       -0.0362
     17 C           4.1200    4.7631    0.0000 C.3     1  UNL1       -0.0438
     18 C           4.1200   -0.4330    0.0000 C.2     1  UNL1       -0.0813
     19 C           7.1200    1.2990    0.0000 C.3     1  UNL1       -0.0438
     20 C           5.6200    3.8971    0.0000 C.2     1  UNL1       -0.0994
     21 C           2.6200    0.4330    0.0000 C.3     1  UNL1       -0.0438
     22 C           4.1200   -2.1651    0.0000 C.3     1  UNL1        0.1136
     23 C           4.1200   -3.8971    0.0000 C.2     1  UNL1        0.3042
     24 C           4.6200   -4.7631    0.0000 C.3     1  UNL1        0.0332
     25 H           3.8100    3.5680    0.0000 H       1  UNL1        0.0348
     26 H           4.0374    1.9530    0.0000 H       1  UNL1        0.0274
     27 H           4.7277    1.5545    0.0000 H       1  UNL1        0.0274
     28 H           3.2277    3.6417    0.0000 H       1  UNL1        0.0313
     29 H           2.5374    3.2431    0.0000 H       1  UNL1        0.0313
     30 H           6.2026    2.3771    0.0000 H       1  UNL1        0.0310
     31 H           5.5123    2.7756    0.0000 H       1  UNL1        0.0310
     32 H           2.0000    2.1651    0.0000 H       1  UNL1        0.0572
     33 H           4.7026    1.5111    0.0000 H       1  UNL1        0.0313
     34 H           4.0123    1.9096    0.0000 H       1  UNL1        0.0313
     35 H           6.5950   -0.8315    0.0000 H       1  UNL1        0.0310
     36 H           6.5950   -0.0345    0.0000 H       1  UNL1        0.0310
     37 H           5.5123   -1.9096    0.0000 H       1  UNL1        0.0314
     38 H           6.2026   -1.5111    0.0000 H       1  UNL1        0.0314
     39 H           5.1449    0.0347    0.0000 H       1  UNL1        0.0572
     40 H           5.0950    0.0345    0.0000 H       1  UNL1        0.0310
     41 H           5.0950    0.8315    0.0000 H       1  UNL1        0.0310
     42 H           4.6569    5.0731    0.0000 H       1  UNL1        0.0274
     43 H           3.8100    5.3001    0.0000 H       1  UNL1        0.0274
     44 H           3.5831    4.4531    0.0000 H       1  UNL1        0.0274
     45 H           3.5000   -0.4330    0.0000 H       1  UNL1        0.0573
     46 H           7.1200    0.6790    0.0000 H       1  UNL1        0.0274
     47 H           7.7400    1.2990    0.0000 H       1  UNL1        0.0274
     48 H           7.1200    1.9190    0.0000 H       1  UNL1        0.0274
     49 H           5.9300    3.3602    0.0000 H       1  UNL1        0.0534
     50 H           5.9300    4.4340    0.0000 H       1  UNL1        0.0534
     51 H           2.0831    0.7430    0.0000 H       1  UNL1        0.0274
     52 H           2.3100   -0.1039    0.0000 H       1  UNL1        0.0274
     53 H           3.1569    0.1230    0.0000 H       1  UNL1        0.0274
     54 H           3.6450   -1.7665    0.0000 H       1  UNL1        0.0745
     55 H           3.6450   -2.5636    0.0000 H       1  UNL1        0.0745
     56 H           4.0831   -5.0731    0.0000 H       1  UNL1        0.0342
     57 H           4.9300   -5.3001    0.0000 H       1  UNL1        0.0342
     58 H           5.1569   -4.4531    0.0000 H       1  UNL1        0.0342
@<TRIPOS>BOND
     1     1    22    1
     2     1    23    1
     3     2    23    2
     4     3     4    1
     5     3     5    1
     6     3     7    1
     7     3    25    1
     8     4     6    1
     9     4    26    1
    10     4    27    1
    11     5     9    1
    12     5    28    1
    13     5    29    1
    14     6     8    1
    15     6    30    1
    16     6    31    1
    17     7    17    1
    18     7    20    2
    19     8    14    2
    20     8    19    1
    21     9    10    2
    22     9    32    1
    23    10    11    1
    24    10    21    1
    25    11    15    1
    26    11    33    1
    27    11    34    1
    28    12    13    1
    29    12    14    1
    30    12    35    1
    31    12    36    1
    32    13    16    1
    33    13    37    1
    34    13    38    1
    35    14    39    1
    36    15    18    1
    37    15    40    1
    38    15    41    1
    39    16    18    2
    40    16    22    1
    41    17    42    1
    42    17    43    1
    43    17    44    1
    44    18    45    1
    45    19    46    1
    46    19    47    1
    47    19    48    1
    48    20    49    1
    49    20    50    1
    50    21    51    1
    51    21    52    1
    52    21    53    1
    53    22    54    1
    54    22    55    1
    55    23    24    1
    56    24    56    1
    57    24    57    1
    58    24    58    1
