@<TRIPOS>MOLECULE
IMPHY006130
 17 17 0 0 0
SMALL
GASTEIGER

@<TRIPOS>ATOM
      1 O           5.1350   -1.0000    0.0000 O.2     1  UNL1       -0.4414
      2 O           5.1350    2.0000    0.0000 O.2     1  UNL1       -0.2877
      3 O           2.5369   -0.5000    0.0000 O.3     1  UNL1       -0.4750
      4 O           7.7331   -0.5000    0.0000 O.3     1  UNL1       -0.4750
      5 O           3.4030   -2.0000    0.0000 O.2     1  UNL1       -0.2417
      6 O           6.8671   -2.0000    0.0000 O.2     1  UNL1       -0.2417
      7 C           4.2690   -0.5000    0.0000 C.ar    1  UNL1        0.2157
      8 C           6.0010   -0.5000    0.0000 C.ar    1  UNL1        0.2157
      9 C           4.2690    0.5000    0.0000 C.ar    1  UNL1        0.0346
     10 C           6.0010    0.5000    0.0000 C.ar    1  UNL1        0.0346
     11 C           5.1350    1.0000    0.0000 C.ar    1  UNL1        0.1864
     12 C           3.4030   -1.0000    0.0000 C.2     1  UNL1        0.3726
     13 C           6.8671   -1.0000    0.0000 C.2     1  UNL1        0.3726
     14 H           6.5380    0.8100    0.0000 H       1  UNL1        0.0695
     15 H           3.7320    0.8100    0.0000 H       1  UNL1        0.0695
     16 H           8.2700   -0.8100    0.0000 H       1  UNL1        0.2955
     17 H           2.0000   -0.8100    0.0000 H       1  UNL1        0.2955
@<TRIPOS>BOND
     1     1     7   ar
     2     1     8   ar
     3     2    11    2
     4     3    12    1
     5     3    17    1
     6     4    13    1
     7     4    16    1
     8     5    12    2
     9     6    13    2
    10     7     9   ar
    11     7    12    1
    12     8    10   ar
    13     8    13    1
    14     9    11   ar
    15     9    15    1
    16    10    11   ar
    17    10    14    1
