@<TRIPOS>MOLECULE
IMPHY005898
 31 33 0 0 0
SMALL
GASTEIGER

@<TRIPOS>ATOM
      1 O           6.0290   -1.1467    0.0000 O.2     1  UNL1       -0.4582
      2 O           4.2690    1.8879    0.0000 O.3     1  UNL1       -0.5058
      3 O           4.2690   -2.1121    0.0000 O.3     1  UNL1       -0.5009
      4 O           6.0174    1.9225    0.0000 O.2     1  UNL1       -0.2863
      5 O           2.5369   -1.1121    0.0000 O.3     1  UNL1       -0.5031
      6 O          10.3914    2.4221    0.0000 O.3     1  UNL1       -0.5068
      7 C           5.1350    0.3879    0.0000 C.ar    1  UNL1        0.1097
      8 C           6.9350    0.4087    0.0000 C.ar    1  UNL1        0.0644
      9 C           5.1350   -0.6121    0.0000 C.ar    1  UNL1        0.1868
     10 C           6.0290    0.9226    0.0000 C.ar    1  UNL1        0.2038
     11 C           7.7991    0.9121    0.0000 C.ar    1  UNL1       -0.0110
     12 C           4.2690    0.8879    0.0000 C.ar    1  UNL1        0.1349
     13 C           4.2690   -1.1121    0.0000 C.ar    1  UNL1        0.2024
     14 C           6.9350   -0.6329    0.0000 C.ar    1  UNL1        0.1040
     15 C           3.4030   -0.6121    0.0000 C.ar    1  UNL1        0.1655
     16 C           3.4030    0.3879    0.0000 C.ar    1  UNL1        0.0259
     17 C           8.6671    0.4154    0.0000 C.ar    1  UNL1       -0.0504
     18 C           7.7953    1.9121    0.0000 C.ar    1  UNL1       -0.0504
     19 C           9.5312    0.9188    0.0000 C.ar    1  UNL1       -0.0196
     20 C           8.6594    2.4154    0.0000 C.ar    1  UNL1       -0.0196
     21 C           9.5273    1.9187    0.0000 C.ar    1  UNL1        0.1169
     22 H           7.4708   -0.9450    0.0000 H       1  UNL1        0.1037
     23 H           2.8660    0.6979    0.0000 H       1  UNL1        0.0692
     24 H           8.6694   -0.2046    0.0000 H       1  UNL1        0.0625
     25 H           7.2571    2.2200    0.0000 H       1  UNL1        0.0625
     26 H          10.0693    0.6108    0.0000 H       1  UNL1        0.0654
     27 H           8.6570    3.0354    0.0000 H       1  UNL1        0.0654
     28 H           3.7320    2.1979    0.0000 H       1  UNL1        0.2922
     29 H           3.7320   -2.4221    0.0000 H       1  UNL1        0.2924
     30 H           2.0000   -0.8021    0.0000 H       1  UNL1        0.2923
     31 H          10.9295    2.1142    0.0000 H       1  UNL1        0.2921
@<TRIPOS>BOND
     1     1     9   ar
     2     1    14   ar
     3     2    12    1
     4     2    28    1
     5     3    13    1
     6     3    29    1
     7     4    10    2
     8     5    15    1
     9     5    30    1
    10     6    21    1
    11     6    31    1
    12     7     9   ar
    13     7    10   ar
    14     7    12   ar
    15     8    10   ar
    16     8    11    1
    17     8    14   ar
    18     9    13   ar
    19    11    17   ar
    20    11    18   ar
    21    12    16   ar
    22    13    15   ar
    23    14    22    1
    24    15    16   ar
    25    16    23    1
    26    17    19   ar
    27    17    24    1
    28    18    20   ar
    29    18    25    1
    30    19    21   ar
    31    19    26    1
    32    20    21   ar
    33    20    27    1
