@<TRIPOS>MOLECULE
IMPHY006275
 45 47 0 0 0
SMALL
GASTEIGER

@<TRIPOS>ATOM
      1 O           6.3580    0.3530    0.0000 O.2     1  UNL1       -0.4539
      2 O           3.7320   -3.1123    0.0000 O.3     1  UNL1       -0.3851
      3 O           2.8660    0.3877    0.0000 O.3     1  UNL1       -0.4944
      4 O           6.3465    3.4223    0.0000 O.2     1  UNL1       -0.2870
      5 C           3.7320   -2.1123    0.0000 C.3     1  UNL1        0.0789
      6 C           4.5981    0.3877    0.0000 C.ar    1  UNL1        0.0594
      7 C           5.4641    0.8877    0.0000 C.ar    1  UNL1        0.1498
      8 C           5.4641    1.8877    0.0000 C.ar    1  UNL1        0.0648
      9 C           3.7320   -1.1123    0.0000 C.2     1  UNL1       -0.0526
     10 C           4.5981   -0.6123    0.0000 C.2     1  UNL1       -0.0488
     11 C           3.7320    0.8877    0.0000 C.ar    1  UNL1        0.1308
     12 C           2.7320   -2.1123    0.0000 C.3     1  UNL1       -0.0327
     13 C           4.7320   -2.1123    0.0000 C.3     1  UNL1       -0.0327
     14 C           4.5981    2.3877    0.0000 C.ar    1  UNL1       -0.0439
     15 C           7.2641    0.8669    0.0000 C.ar    1  UNL1        0.1392
     16 C           6.3580    2.4224    0.0000 C.ar    1  UNL1        0.1931
     17 C           3.7320    1.8877    0.0000 C.ar    1  UNL1       -0.0185
     18 C           7.2641    1.9085    0.0000 C.ar    1  UNL1        0.0287
     19 C           8.1282    0.3636    0.0000 C.ar    1  UNL1        0.0174
     20 C           8.1244   -0.6364    0.0000 C.ar    1  UNL1       -0.0511
     21 C           8.9962    0.8602    0.0000 C.ar    1  UNL1       -0.0511
     22 C           8.9884   -1.1398    0.0000 C.ar    1  UNL1       -0.0611
     23 C           9.8602    0.3569    0.0000 C.ar    1  UNL1       -0.0611
     24 C           2.0000    0.8877    0.0000 C.3     1  UNL1        0.0788
     25 C           9.8564   -0.6431    0.0000 C.ar    1  UNL1       -0.0617
     26 H           3.1951   -0.8023    0.0000 H       1  UNL1        0.0600
     27 H           5.1350   -0.9223    0.0000 H       1  UNL1        0.0624
     28 H           2.7320   -1.4923    0.0000 H       1  UNL1        0.0260
     29 H           2.1120   -2.1123    0.0000 H       1  UNL1        0.0260
     30 H           2.7320   -2.7323    0.0000 H       1  UNL1        0.0260
     31 H           4.7320   -2.7323    0.0000 H       1  UNL1        0.0260
     32 H           5.3520   -2.1123    0.0000 H       1  UNL1        0.0260
     33 H           4.7320   -1.4923    0.0000 H       1  UNL1        0.0260
     34 H           4.5981    3.0077    0.0000 H       1  UNL1        0.0627
     35 H           3.1951    2.1977    0.0000 H       1  UNL1        0.0654
     36 H           7.7998    2.2206    0.0000 H       1  UNL1        0.0693
     37 H           3.1951   -3.4223    0.0000 H       1  UNL1        0.2106
     38 H           7.5862   -0.9444    0.0000 H       1  UNL1        0.0625
     39 H           8.9985    1.4802    0.0000 H       1  UNL1        0.0625
     40 H           8.9860   -1.7598    0.0000 H       1  UNL1        0.0618
     41 H          10.3984    0.6648    0.0000 H       1  UNL1        0.0618
     42 H           2.3100    1.4246    0.0000 H       1  UNL1        0.0660
     43 H           1.4631    1.1977    0.0000 H       1  UNL1        0.0660
     44 H           1.6900    0.3508    0.0000 H       1  UNL1        0.0660
     45 H          10.3921   -0.9552    0.0000 H       1  UNL1        0.0618
@<TRIPOS>BOND
     1     1     7   ar
     2     1    15   ar
     3     2     5    1
     4     2    37    1
     5     3    11    1
     6     3    24    1
     7     4    16    2
     8     5     9    1
     9     5    12    1
    10     5    13    1
    11     6     7   ar
    12     6    10    1
    13     6    11   ar
    14     7     8   ar
    15     8    14   ar
    16     8    16   ar
    17     9    10    2
    18     9    26    1
    19    10    27    1
    20    11    17   ar
    21    12    28    1
    22    12    29    1
    23    12    30    1
    24    13    31    1
    25    13    32    1
    26    13    33    1
    27    14    17   ar
    28    14    34    1
    29    15    18   ar
    30    15    19    1
    31    16    18   ar
    32    17    35    1
    33    18    36    1
    34    19    20   ar
    35    19    21   ar
    36    20    22   ar
    37    20    38    1
    38    21    23   ar
    39    21    39    1
    40    22    25   ar
    41    22    40    1
    42    23    25   ar
    43    23    41    1
    44    24    42    1
    45    24    43    1
    46    24    44    1
    47    25    45    1
