@<TRIPOS>MOLECULE
IMPHY007716
 177 186 0 0 0
SMALL
GASTEIGER

@<TRIPOS>ATOM
      1 O           9.5620   -5.6478    0.0000 O.3     1  UNL1       -0.3915
      2 O           6.8671   -8.3098    0.0000 O.3     1  UNL1       -0.3423
      3 O           9.6611   -1.2313    0.0000 O.3     1  UNL1       -0.3906
      4 O           5.0597   -7.2570    0.0000 O.3     1  UNL1       -0.3892
      5 O           9.3112   -7.6182    0.0000 O.3     1  UNL1       -0.3944
      6 O           9.5042   -0.5203    0.0000 O.3     1  UNL1       -0.4318
      7 O           8.6209    0.9696    0.0000 O.2     1  UNL1       -0.2500
      8 O           5.1350   -8.3098    0.0000 O.3     1  UNL1       -0.3405
      9 O           6.8671  -10.3098    0.0000 O.3     1  UNL1       -0.3841
     10 O          11.2361   -0.5003    0.0000 O.3     1  UNL1       -0.3368
     11 O           5.1350  -11.3098    0.0000 O.3     1  UNL1       -0.3864
     12 O           9.4810    1.4796    0.0000 O.3     1  UNL1       -0.3366
     13 O           3.4030  -10.3098    0.0000 O.3     1  UNL1       -0.3865
     14 O          11.2014    2.4995    0.0000 O.3     1  UNL1       -0.3864
     15 O           2.5369   -8.8098    0.0000 O.3     1  UNL1       -0.3924
     16 O          12.9449    1.5196    0.0000 O.3     1  UNL1       -0.3869
     17 O          10.3297    2.9895    0.0000 O.3     1  UNL1       -0.3431
     18 O           7.7376    2.4595    0.0000 O.3     1  UNL1       -0.3841
     19 O           7.7144    4.4594    0.0000 O.3     1  UNL1       -0.3864
     20 O           9.4348    5.4793    0.0000 O.3     1  UNL1       -0.3402
     21 O          11.1667    5.4993    0.0000 O.3     1  UNL1       -0.3461
     22 O           9.4117    7.4792    0.0000 O.3     1  UNL1       -0.3841
     23 O          11.1320    8.4991    0.0000 O.3     1  UNL1       -0.3401
     24 O          12.8755    7.5192    0.0000 O.3     1  UNL1       -0.3868
     25 O          12.9104    8.6130    0.0000 O.3     1  UNL1       -0.3457
     26 O          11.3344   10.6653    0.0000 O.3     1  UNL1       -0.3837
     27 O          12.8417   11.1997    0.0000 O.3     1  UNL1       -0.3812
     28 O          14.7929   10.2440    0.0000 O.3     1  UNL1       -0.3920
     29 C           7.7681   -3.6096    0.0000 C.3     1  UNL1       -0.0170
     30 C           6.8920   -5.1545    0.0000 C.3     1  UNL1       -0.0202
     31 C           6.9040   -4.1130    0.0000 C.3     1  UNL1       -0.0255
     32 C           7.7643   -2.6096    0.0000 C.3     1  UNL1       -0.0027
     33 C           7.7920   -5.6788    0.0000 C.3     1  UNL1        0.0007
     34 C           8.6801   -4.1130    0.0000 C.3     1  UNL1       -0.0201
     35 C           8.6921   -5.1545    0.0000 C.3     1  UNL1        0.0597
     36 C           7.8046   -6.7637    0.0000 C.3     1  UNL1        0.0254
     37 C           6.8963   -2.1130    0.0000 C.2     1  UNL1       -0.0627
     38 C           5.9421   -5.6788    0.0000 C.3     1  UNL1       -0.0183
     39 C           6.0361   -3.6163    0.0000 C.3     1  UNL1       -0.0306
     40 C           6.8762   -1.0715    0.0000 C.3     1  UNL1       -0.0007
     41 C           8.6723   -2.0993    0.0000 C.3     1  UNL1       -0.0162
     42 C           7.7722   -0.5403    0.0000 C.3     1  UNL1        0.1000
     43 C           6.8671   -7.3098    0.0000 C.3     1  UNL1        0.0954
     44 C           8.7522   -3.4322    0.0000 C.3     1  UNL1       -0.0584
     45 C           8.6763   -1.0576    0.0000 C.3     1  UNL1        0.0723
     46 C           5.9295   -6.7637    0.0000 C.3     1  UNL1        0.0825
     47 C           6.0279   -4.6512    0.0000 C.3     1  UNL1       -0.0588
     48 C           6.0322   -2.6163    0.0000 C.2     1  UNL1       -0.0836
     49 C           8.7497   -2.7795    0.0000 C.3     1  UNL1       -0.0552
     50 C           5.9223   -0.5546    0.0000 C.3     1  UNL1       -0.0402
     51 C           7.7764    0.5447    0.0000 C.3     1  UNL1       -0.0338
     52 C           5.9014    0.5302    0.0000 C.3     1  UNL1       -0.0343
     53 C           8.3113   -7.6259    0.0000 C.3     1  UNL1        0.0524
     54 C           8.8046   -6.7560    0.0000 C.3     1  UNL1       -0.0547
     55 C           6.8347    1.0836    0.0000 C.3     1  UNL1       -0.0467
     56 C           8.6324   -0.0303    0.0000 C.2     1  UNL1        0.3186
     57 C           5.3881    1.3884    0.0000 C.3     1  UNL1       -0.0598
     58 C           4.9015    0.5148    0.0000 C.3     1  UNL1       -0.0598
     59 C           6.0010   -8.8098    0.0000 C.3     1  UNL1        0.1883
     60 C           6.0010   -9.8098    0.0000 C.3     1  UNL1        0.1341
     61 C          10.3644   -0.0103    0.0000 C.3     1  UNL1        0.2338
     62 C           5.1350  -10.3098    0.0000 C.3     1  UNL1        0.1141
     63 C           4.2690   -8.8098    0.0000 C.3     1  UNL1        0.1130
     64 C           4.2690   -9.8098    0.0000 C.3     1  UNL1        0.1119
     65 C          10.3528    0.9896    0.0000 C.3     1  UNL1        0.1520
     66 C          11.2130    1.4996    0.0000 C.3     1  UNL1        0.1152
     67 C           3.4030   -8.3098    0.0000 C.3     1  UNL1        0.0730
     68 C          12.0963    0.0097    0.0000 C.3     1  UNL1        0.0802
     69 C          12.0847    1.0097    0.0000 C.3     1  UNL1        0.1070
     70 C           9.4695    2.4795    0.0000 C.3     1  UNL1        0.1885
     71 C           8.5977    2.9695    0.0000 C.3     1  UNL1        0.1341
     72 C           8.5862    3.9694    0.0000 C.3     1  UNL1        0.1143
     73 C          10.3181    3.9894    0.0000 C.3     1  UNL1        0.0877
     74 C           9.4464    4.4794    0.0000 C.3     1  UNL1        0.1160
     75 C          11.1783    4.4994    0.0000 C.3     1  UNL1       -0.0361
     76 C          10.2950    5.9893    0.0000 C.3     1  UNL1        0.1880
     77 C          10.2834    6.9892    0.0000 C.3     1  UNL1        0.1345
     78 C          11.1436    7.4992    0.0000 C.3     1  UNL1        0.1202
     79 C          12.0269    6.0093    0.0000 C.3     1  UNL1        0.0792
     80 C          12.0154    7.0093    0.0000 C.3     1  UNL1        0.1073
     81 C          11.9922    9.0091    0.0000 C.3     1  UNL1        0.1884
     82 C          12.0853   10.0048    0.0000 C.3     1  UNL1        0.1387
     83 C          13.0609   10.2240    0.0000 C.3     1  UNL1        0.1425
     84 C          13.5709    9.3638    0.0000 C.3     1  UNL1        0.0843
     85 C          13.9211   10.7340    0.0000 C.3     1  UNL1        0.0778
     86 H           7.6385   -4.5408    0.0000 H       1  UNL1        0.0315
     87 H           8.5314   -6.0981    0.0000 H       1  UNL1        0.0338
     88 H           9.2921   -4.2120    0.0000 H       1  UNL1        0.0296
     89 H           8.8824   -3.5269    0.0000 H       1  UNL1        0.0296
     90 H           9.2260   -4.8393    0.0000 H       1  UNL1        0.0596
     91 H           5.7398   -5.0927    0.0000 H       1  UNL1        0.0296
     92 H           5.3300   -5.7778    0.0000 H       1  UNL1        0.0296
     93 H           5.4251   -3.5110    0.0000 H       1  UNL1        0.0310
     94 H           5.8263   -4.1997    0.0000 H       1  UNL1        0.0310
     95 H           6.1502   -1.5134    0.0000 H       1  UNL1        0.0357
     96 H           8.8791   -2.6838    0.0000 H       1  UNL1        0.0299
     97 H           9.2836   -1.9955    0.0000 H       1  UNL1        0.0299
     98 H           7.4046   -7.6188    0.0000 H       1  UNL1        0.0629
     99 H           8.8623   -4.0423    0.0000 H       1  UNL1        0.0235
    100 H           9.3624   -3.3222    0.0000 H       1  UNL1        0.0235
    101 H           8.6422   -2.8220    0.0000 H       1  UNL1        0.0235
    102 H           8.8872   -0.4746    0.0000 H       1  UNL1        0.0605
    103 H           5.9259   -7.3837    0.0000 H       1  UNL1        0.0619
    104 H           6.3400   -4.1154    0.0000 H       1  UNL1        0.0235
    105 H           5.4922   -4.3391    0.0000 H       1  UNL1        0.0235
    106 H           5.7158   -5.1869    0.0000 H       1  UNL1        0.0235
    107 H           5.4941   -2.3084    0.0000 H       1  UNL1        0.0572
    108 H           8.6444   -3.3905    0.0000 H       1  UNL1        0.0238
    109 H           9.3607   -2.8848    0.0000 H       1  UNL1        0.0238
    110 H           8.8550   -2.1685    0.0000 H       1  UNL1        0.0238
    111 H           5.3095   -0.4603    0.0000 H       1  UNL1        0.0276
    112 H           5.7246   -1.1422    0.0000 H       1  UNL1        0.0276
    113 H           8.3869    0.4362    0.0000 H       1  UNL1        0.0277
    114 H           7.9877    1.1276    0.0000 H       1  UNL1        0.0277
    115 H           7.7303   -7.8424    0.0000 H       1  UNL1        0.0563
    116 H           8.4236   -8.2356    0.0000 H       1  UNL1        0.0563
    117 H           8.8094   -7.3760    0.0000 H       1  UNL1        0.0237
    118 H           9.4246   -6.7512    0.0000 H       1  UNL1        0.0237
    119 H           8.7998   -6.1360    0.0000 H       1  UNL1        0.0237
    120 H           7.2302    1.5610    0.0000 H       1  UNL1        0.0271
    121 H           6.4319    1.5549    0.0000 H       1  UNL1        0.0271
    122 H          10.0965   -5.3337    0.0000 H       1  UNL1        0.2098
    123 H           9.8732   -1.8139    0.0000 H       1  UNL1        0.2098
    124 H           4.5251   -6.9429    0.0000 H       1  UNL1        0.2099
    125 H           5.9202    1.7067    0.0000 H       1  UNL1        0.0235
    126 H           4.8920    1.1347    0.0000 H       1  UNL1        0.0235
    127 H           4.2816    0.5052    0.0000 H       1  UNL1        0.0235
    128 H           5.0699    1.9205    0.0000 H       1  UNL1        0.0235
    129 H           4.8560    1.0702    0.0000 H       1  UNL1        0.0235
    130 H           4.9111   -0.1051    0.0000 H       1  UNL1        0.0235
    131 H           6.0010   -8.1898    0.0000 H       1  UNL1        0.0938
    132 H           9.6254   -8.1527    0.0000 H       1  UNL1        0.2094
    133 H           6.0010  -10.4298    0.0000 H       1  UNL1        0.0671
    134 H          10.3715   -0.6303    0.0000 H       1  UNL1        0.1085
    135 H           4.5981  -10.6198    0.0000 H       1  UNL1        0.0648
    136 H           4.2690   -8.1898    0.0000 H       1  UNL1        0.0647
    137 H           3.7320   -9.4998    0.0000 H       1  UNL1        0.0647
    138 H          10.3456    1.6096    0.0000 H       1  UNL1        0.0687
    139 H           6.8671  -10.9298    0.0000 H       1  UNL1        0.2101
    140 H          11.7463    1.8158    0.0000 H       1  UNL1        0.0648
    141 H           3.8015   -7.8349    0.0000 H       1  UNL1        0.0584
    142 H           3.0044   -7.8349    0.0000 H       1  UNL1        0.0584
    143 H          12.3151   -0.5704    0.0000 H       1  UNL1        0.0588
    144 H          12.7056    0.1244    0.0000 H       1  UNL1        0.0588
    145 H          12.6252    0.7059    0.0000 H       1  UNL1        0.0643
    146 H           4.5981  -11.6198    0.0000 H       1  UNL1        0.2100
    147 H           3.4030  -10.9298    0.0000 H       1  UNL1        0.2100
    148 H           8.9362    2.1633    0.0000 H       1  UNL1        0.0938
    149 H          11.7347    2.8157    0.0000 H       1  UNL1        0.2100
    150 H           2.0000   -8.4998    0.0000 H       1  UNL1        0.2095
    151 H          13.4854    1.2159    0.0000 H       1  UNL1        0.2100
    152 H           8.0573    3.2732    0.0000 H       1  UNL1        0.0671
    153 H           8.5790    4.5894    0.0000 H       1  UNL1        0.0648
    154 H          10.8586    3.6857    0.0000 H       1  UNL1        0.0621
    155 H           9.9797    4.7956    0.0000 H       1  UNL1        0.0650
    156 H           7.1971    2.7633    0.0000 H       1  UNL1        0.2101
    157 H          11.4945    3.9661    0.0000 H       1  UNL1        0.0255
    158 H          11.7116    4.8156    0.0000 H       1  UNL1        0.0255
    159 H          10.8621    5.0327    0.0000 H       1  UNL1        0.0255
    160 H           7.7073    5.0793    0.0000 H       1  UNL1        0.2100
    161 H          10.3022    5.3693    0.0000 H       1  UNL1        0.0937
    162 H           9.7501    6.6730    0.0000 H       1  UNL1        0.0671
    163 H          11.6769    7.8154    0.0000 H       1  UNL1        0.0651
    164 H          12.2457    5.4292    0.0000 H       1  UNL1        0.0587
    165 H          12.6362    6.1240    0.0000 H       1  UNL1        0.0587
    166 H          12.5558    6.7055    0.0000 H       1  UNL1        0.0643
    167 H           9.4045    8.0991    0.0000 H       1  UNL1        0.2101
    168 H          11.4684    9.3408    0.0000 H       1  UNL1        0.0938
    169 H          13.4160    7.2155    0.0000 H       1  UNL1        0.2100
    170 H          11.5090    9.7759    0.0000 H       1  UNL1        0.0675
    171 H          13.9911    8.9079    0.0000 H       1  UNL1        0.0591
    172 H          14.0683    9.7340    0.0000 H       1  UNL1        0.0591
    173 H          14.3141   11.2135    0.0000 H       1  UNL1        0.0587
    174 H          13.5171   11.2043    0.0000 H       1  UNL1        0.0587
    175 H          11.4563   11.2732    0.0000 H       1  UNL1        0.2101
    176 H          13.2976   11.6198    0.0000 H       1  UNL1        0.2105
    177 H          15.3262   10.5602    0.0000 H       1  UNL1        0.2095
@<TRIPOS>BOND
     1    35     1    1
     2     1   122    1
     3    43     2    1
     4    59     2    1
     5    45     3    1
     6     3   123    1
     7    46     4    1
     8     4   124    1
     9     5    53    1
    10     5   132    1
    11     6    56    1
    12    61     6    1
    13     7    56    2
    14     8    59    1
    15     8    63    1
    16    60     9    1
    17     9   139    1
    18    10    61    1
    19    10    68    1
    20    62    11    1
    21    11   146    1
    22    65    12    1
    23    70    12    1
    24    64    13    1
    25    13   147    1
    26    66    14    1
    27    14   149    1
    28    15    67    1
    29    15   150    1
    30    69    16    1
    31    16   151    1
    32    17    70    1
    33    17    73    1
    34    71    18    1
    35    18   156    1
    36    72    19    1
    37    19   160    1
    38    74    20    1
    39    76    20    1
    40    21    76    1
    41    21    79    1
    42    77    22    1
    43    22   167    1
    44    78    23    1
    45    81    23    1
    46    80    24    1
    47    24   169    1
    48    25    81    1
    49    25    84    1
    50    82    26    1
    51    26   175    1
    52    83    27    1
    53    27   176    1
    54    28    85    1
    55    28   177    1
    56    29    31    1
    57    29    32    1
    58    29    34    1
    59    29    44    1
    60    30    31    1
    61    30    33    1
    62    30    38    1
    63    30    47    1
    64    31    39    1
    65    31    86    1
    66    32    37    1
    67    32    41    1
    68    32    49    1
    69    33    35    1
    70    33    36    1
    71    33    87    1
    72    34    35    1
    73    34    88    1
    74    34    89    1
    75    35    90    1
    76    36    43    1
    77    36    53    1
    78    36    54    1
    79    37    40    1
    80    37    48    2
    81    38    46    1
    82    38    91    1
    83    38    92    1
    84    39    48    1
    85    39    93    1
    86    39    94    1
    87    40    42    1
    88    40    50    1
    89    40    95    1
    90    41    45    1
    91    41    96    1
    92    41    97    1
    93    42    45    1
    94    42    51    1
    95    42    56    1
    96    43    46    1
    97    43    98    1
    98    44    99    1
    99    44   100    1
   100    44   101    1
   101    45   102    1
   102    46   103    1
   103    47   104    1
   104    47   105    1
   105    47   106    1
   106    48   107    1
   107    49   108    1
   108    49   109    1
   109    49   110    1
   110    50    52    1
   111    50   111    1
   112    50   112    1
   113    51    55    1
   114    51   113    1
   115    51   114    1
   116    52    55    1
   117    52    57    1
   118    52    58    1
   119    53   115    1
   120    53   116    1
   121    54   117    1
   122    54   118    1
   123    54   119    1
   124    55   120    1
   125    55   121    1
   126    57   125    1
   127    57   128    1
   128    57   129    1
   129    58   126    1
   130    58   127    1
   131    58   130    1
   132    59    60    1
   133    59   131    1
   134    60    62    1
   135    60   133    1
   136    61    65    1
   137    61   134    1
   138    62    64    1
   139    62   135    1
   140    63    64    1
   141    63    67    1
   142    63   136    1
   143    64   137    1
   144    65    66    1
   145    65   138    1
   146    66    69    1
   147    66   140    1
   148    67   141    1
   149    67   142    1
   150    68    69    1
   151    68   143    1
   152    68   144    1
   153    69   145    1
   154    70    71    1
   155    70   148    1
   156    71    72    1
   157    71   152    1
   158    72    74    1
   159    72   153    1
   160    73    74    1
   161    73    75    1
   162    73   154    1
   163    74   155    1
   164    75   157    1
   165    75   158    1
   166    75   159    1
   167    76    77    1
   168    76   161    1
   169    77    78    1
   170    77   162    1
   171    78    80    1
   172    78   163    1
   173    79    80    1
   174    79   164    1
   175    79   165    1
   176    80   166    1
   177    81    82    1
   178    81   168    1
   179    82    83    1
   180    82   170    1
   181    83    84    1
   182    83    85    1
   183    84   171    1
   184    84   172    1
   185    85   173    1
   186    85   174    1
