@<TRIPOS>MOLECULE
IMPHY012496
 36 37 0 0 0
SMALL
GASTEIGER

@<TRIPOS>ATOM
      1 O           5.4641    0.2500    0.0000 O.3     1  UNL1       -0.4562
      2 O           2.8660   -1.2500    0.0000 O.3     1  UNL1       -0.4942
      3 O           6.3301   -1.2500    0.0000 O.3     1  UNL1       -0.4942
      4 O           3.7320    0.2500    0.0000 O.2     1  UNL1       -0.2447
      5 C           4.5981   -1.2500    0.0000 C.ar    1  UNL1        0.1419
      6 C           3.7320   -1.7500    0.0000 C.ar    1  UNL1        0.1376
      7 C           5.4641   -1.7500    0.0000 C.ar    1  UNL1        0.1376
      8 C           5.4641    1.2500    0.0000 C.3     1  UNL1        0.1179
      9 C           6.3301    1.7500    0.0000 C.ar    1  UNL1       -0.0103
     10 C           4.5981   -0.2500    0.0000 C.2     1  UNL1        0.3467
     11 C           3.7320   -2.7500    0.0000 C.ar    1  UNL1       -0.0189
     12 C           5.4641   -2.7500    0.0000 C.ar    1  UNL1       -0.0189
     13 C           4.5981   -3.2500    0.0000 C.ar    1  UNL1       -0.0548
     14 C           7.1962    1.2500    0.0000 C.ar    1  UNL1       -0.0554
     15 C           6.3301    2.7500    0.0000 C.ar    1  UNL1       -0.0554
     16 C           8.0622    1.7500    0.0000 C.ar    1  UNL1       -0.0614
     17 C           7.1962    3.2500    0.0000 C.ar    1  UNL1       -0.0614
     18 C           8.0622    2.7500    0.0000 C.ar    1  UNL1       -0.0617
     19 C           2.0000   -1.7500    0.0000 C.3     1  UNL1        0.0788
     20 C           7.1962   -1.7500    0.0000 C.3     1  UNL1        0.0788
     21 H           5.2520    1.8326    0.0000 H       1  UNL1        0.0749
     22 H           4.8535    1.1423    0.0000 H       1  UNL1        0.0749
     23 H           3.1951   -3.0600    0.0000 H       1  UNL1        0.0654
     24 H           6.0010   -3.0600    0.0000 H       1  UNL1        0.0654
     25 H           4.5981   -3.8700    0.0000 H       1  UNL1        0.0620
     26 H           7.1962    0.6300    0.0000 H       1  UNL1        0.0621
     27 H           5.7932    3.0600    0.0000 H       1  UNL1        0.0621
     28 H           8.5991    1.4400    0.0000 H       1  UNL1        0.0618
     29 H           7.1962    3.8700    0.0000 H       1  UNL1        0.0618
     30 H           8.5991    3.0600    0.0000 H       1  UNL1        0.0618
     31 H           1.6900   -1.2131    0.0000 H       1  UNL1        0.0660
     32 H           1.4631   -2.0600    0.0000 H       1  UNL1        0.0660
     33 H           2.3100   -2.2869    0.0000 H       1  UNL1        0.0660
     34 H           6.8862   -2.2869    0.0000 H       1  UNL1        0.0660
     35 H           7.7331   -2.0600    0.0000 H       1  UNL1        0.0660
     36 H           7.5062   -1.2131    0.0000 H       1  UNL1        0.0660
@<TRIPOS>BOND
     1     1     8    1
     2     1    10    1
     3     2     6    1
     4     2    19    1
     5     3     7    1
     6     3    20    1
     7     4    10    2
     8     5     6   ar
     9     5     7   ar
    10     5    10    1
    11     6    11   ar
    12     7    12   ar
    13     8     9    1
    14     8    21    1
    15     8    22    1
    16     9    14   ar
    17     9    15   ar
    18    11    13   ar
    19    11    23    1
    20    12    13   ar
    21    12    24    1
    22    13    25    1
    23    14    16   ar
    24    14    26    1
    25    15    17   ar
    26    15    27    1
    27    16    18   ar
    28    16    28    1
    29    17    18   ar
    30    17    29    1
    31    18    30    1
    32    19    31    1
    33    19    32    1
    34    19    33    1
    35    20    34    1
    36    20    35    1
    37    20    36    1
