@<TRIPOS>MOLECULE
IMPHY002993
 50 53 0 0 0
SMALL
GASTEIGER

@<TRIPOS>ATOM
      1 O           8.3352    1.5072    0.0000 O.3     1  UNL1       -0.4813
      2 N           4.8601    0.5906    0.0000 N.ar    1  UNL1       -0.3536
      3 C           8.6648    0.5191    0.0000 C.3     1  UNL1        0.1266
      4 C           9.4105   -0.1472    0.0000 C.3     1  UNL1       -0.0060
      5 C           6.6440    0.9649    0.0000 C.ar    1  UNL1        0.0404
      6 C           5.6659    1.1728    0.0000 C.ar    1  UNL1        0.0582
      7 C           7.9678   -0.2550    0.0000 C.2     1  UNL1       -0.0406
      8 C           7.3132    1.7080    0.0000 C.ar    1  UNL1        0.1309
      9 C           5.3569    2.1239    0.0000 C.ar    1  UNL1        0.0082
     10 C           9.6146    0.8318    0.0000 C.3     1  UNL1       -0.0212
     11 C           6.9506   -0.0306    0.0000 C.2     1  UNL1       -0.0493
     12 C           9.2063   -1.1261    0.0000 C.3     1  UNL1       -0.0306
     13 C           4.3628    2.1213    0.0000 C.ar    1  UNL1        0.0077
     14 C           4.0564    1.1756    0.0000 C.ar    1  UNL1        0.0475
     15 C           7.0041    2.6591    0.0000 C.ar    1  UNL1       -0.0186
     16 C           6.0260    2.8670    0.0000 C.ar    1  UNL1       -0.0485
     17 C           3.6812    2.9008    0.0000 C.ar    1  UNL1       -0.0491
     18 C           9.9520   -1.7924    0.0000 C.2     1  UNL1       -0.0851
     19 C           3.0472    0.9439    0.0000 C.ar    1  UNL1       -0.0375
     20 C           2.6669    2.6924    0.0000 C.ar    1  UNL1       -0.0497
     21 C           2.3478    1.7074    0.0000 C.ar    1  UNL1       -0.0569
     22 C           9.7479   -2.7713    0.0000 C.2     1  UNL1       -0.0796
     23 C           2.0000    3.4376    0.0000 C.3     1  UNL1       -0.0397
     24 C          10.4936   -3.4376    0.0000 C.3     1  UNL1       -0.0440
     25 C           8.7980   -3.0840    0.0000 C.3     1  UNL1       -0.0440
     26 H           9.9862   -0.3772    0.0000 H       1  UNL1        0.0310
     27 H           9.7370    0.3799    0.0000 H       1  UNL1        0.0310
     28 H           8.1571   -0.8454    0.0000 H       1  UNL1        0.0611
     29 H           9.8085    0.2428    0.0000 H       1  UNL1        0.0271
     30 H          10.2035    1.0256    0.0000 H       1  UNL1        0.0271
     31 H           9.4207    1.4207    0.0000 H       1  UNL1        0.0271
     32 H           6.5304   -0.4865    0.0000 H       1  UNL1        0.0623
     33 H           8.6306   -0.8961    0.0000 H       1  UNL1        0.0309
     34 H           8.8798   -1.6532    0.0000 H       1  UNL1        0.0309
     35 H           4.8591   -0.0294    0.0000 H       1  UNL1        0.1659
     36 H           7.4190    3.1199    0.0000 H       1  UNL1        0.0654
     37 H           5.8344    3.4567    0.0000 H       1  UNL1        0.0625
     38 H           3.8791    3.4884    0.0000 H       1  UNL1        0.0627
     39 H          10.5410   -1.5985    0.0000 H       1  UNL1        0.0571
     40 H           2.8630    0.3519    0.0000 H       1  UNL1        0.0638
     41 H           1.7420    1.5756    0.0000 H       1  UNL1        0.0621
     42 H           2.4620    3.8511    0.0000 H       1  UNL1        0.0278
     43 H           1.5865    3.8996    0.0000 H       1  UNL1        0.0278
     44 H           1.5380    3.0241    0.0000 H       1  UNL1        0.0278
     45 H          10.0805   -3.8999    0.0000 H       1  UNL1        0.0274
     46 H          10.9560   -3.8507    0.0000 H       1  UNL1        0.0274
     47 H          10.9067   -2.9752    0.0000 H       1  UNL1        0.0274
     48 H           8.6042   -2.4951    0.0000 H       1  UNL1        0.0274
     49 H           8.2091   -3.2779    0.0000 H       1  UNL1        0.0274
     50 H           8.9919   -3.6729    0.0000 H       1  UNL1        0.0274
@<TRIPOS>BOND
     1     1     3    1
     2     1     8    1
     3     2     6   ar
     4     2    14   ar
     5     2    35    1
     6     3     4    1
     7     3     7    1
     8     3    10    1
     9     4    12    1
    10     4    26    1
    11     4    27    1
    12     5     6   ar
    13     5     8   ar
    14     5    11    1
    15     6     9   ar
    16     7    11    2
    17     7    28    1
    18     8    15   ar
    19     9    13   ar
    20     9    16   ar
    21    10    29    1
    22    10    30    1
    23    10    31    1
    24    11    32    1
    25    12    18    1
    26    12    33    1
    27    12    34    1
    28    13    14   ar
    29    13    17   ar
    30    14    19   ar
    31    15    16   ar
    32    15    36    1
    33    16    37    1
    34    17    20   ar
    35    17    38    1
    36    18    22    2
    37    18    39    1
    38    19    21   ar
    39    19    40    1
    40    20    21   ar
    41    20    23    1
    42    21    41    1
    43    22    24    1
    44    22    25    1
    45    23    42    1
    46    23    43    1
    47    23    44    1
    48    24    45    1
    49    24    46    1
    50    24    47    1
    51    25    48    1
    52    25    49    1
    53    25    50    1
