@<TRIPOS>MOLECULE
IMPHY009498
 79 83 0 0 0
SMALL
GASTEIGER

@<TRIPOS>ATOM
      1 O           2.5357   -1.8922    0.0000 O.3     1  UNL1       -0.3881
      2 O           2.5519    0.1994    0.0000 O.3     1  UNL1       -0.3892
      3 O           4.3500   -3.6701    0.0000 O.3     1  UNL1       -0.4802
      4 O           2.8467   -2.8098    0.0000 O.2     1  UNL1       -0.2503
      5 O          11.4608    1.1943    0.0000 O.3     1  UNL1       -0.4802
      6 O          10.6064   -0.3123    0.0000 O.2     1  UNL1       -0.2504
      7 C           5.2868   -0.3467    0.0000 C.3     1  UNL1       -0.0221
      8 C           6.1968    0.1601    0.0000 C.3     1  UNL1       -0.0259
      9 C           7.0628   -0.3398    0.0000 C.3     1  UNL1       -0.0075
     10 C           5.2787   -1.3883    0.0000 C.3     1  UNL1       -0.0172
     11 C           7.0789   -1.3814    0.0000 C.3     1  UNL1       -0.0433
     12 C           4.3433   -1.9380    0.0000 C.3     1  UNL1        0.0962
     13 C           6.1808   -1.9091    0.0000 C.3     1  UNL1       -0.0478
     14 C           7.9288    0.1601    0.0000 C.2     1  UNL1       -0.0638
     15 C           4.3599    0.2174    0.0000 C.3     1  UNL1       -0.0184
     16 C           6.1968    1.1602    0.0000 C.3     1  UNL1       -0.0452
     17 C           7.9288    1.1602    0.0000 C.2     1  UNL1       -0.0656
     18 C           8.8228    1.6948    0.0000 C.3     1  UNL1       -0.0034
     19 C           9.7288    1.1810    0.0000 C.3     1  UNL1        0.0744
     20 C           7.0628    1.6602    0.0000 C.3     1  UNL1       -0.0309
     21 C           3.4037   -1.3955    0.0000 C.3     1  UNL1        0.0967
     22 C           3.4120   -0.3106    0.0000 C.3     1  UNL1        0.0826
     23 C           5.2945    0.6533    0.0000 C.3     1  UNL1       -0.0589
     24 C           8.8228   -0.3745    0.0000 C.3     1  UNL1       -0.0299
     25 C           7.9288   -0.8398    0.0000 C.3     1  UNL1       -0.0556
     26 C           9.7288    0.1393    0.0000 C.3     1  UNL1       -0.0330
     27 C           8.7977    2.7795    0.0000 C.3     1  UNL1       -0.0403
     28 C          10.6726    1.7162    0.0000 C.3     1  UNL1       -0.0362
     29 C           9.7288    3.3364    0.0000 C.3     1  UNL1       -0.0343
     30 C           4.8466   -2.8021    0.0000 C.3     1  UNL1       -0.0466
     31 C          10.6726    2.8012    0.0000 C.3     1  UNL1       -0.0468
     32 C           3.8467   -2.8060    0.0000 C.2     1  UNL1        0.3135
     33 C          10.5987    0.6877    0.0000 C.2     1  UNL1        0.3115
     34 C          10.2188    4.2082    0.0000 C.3     1  UNL1       -0.0598
     35 C           9.2188    4.1966    0.0000 C.3     1  UNL1       -0.0598
     36 H           6.9329    0.5851    0.0000 H       1  UNL1        0.0315
     37 H           5.2820   -2.2383    0.0000 H       1  UNL1        0.0317
     38 H           7.2969   -1.9618    0.0000 H       1  UNL1        0.0274
     39 H           7.6880   -1.2659    0.0000 H       1  UNL1        0.0274
     40 H           5.7835   -2.3851    0.0000 H       1  UNL1        0.0269
     41 H           6.5818   -2.3820    0.0000 H       1  UNL1        0.0269
     42 H           4.7681    0.6840    0.0000 H       1  UNL1        0.0296
     43 H           3.9700    0.6994    0.0000 H       1  UNL1        0.0296
     44 H           5.9847    1.7428    0.0000 H       1  UNL1        0.0271
     45 H           5.5862    1.0525    0.0000 H       1  UNL1        0.0271
     46 H           9.5522    2.1311    0.0000 H       1  UNL1        0.0356
     47 H           7.4613    2.1351    0.0000 H       1  UNL1        0.0310
     48 H           6.6643    2.1351    0.0000 H       1  UNL1        0.0310
     49 H           3.4025   -2.0155    0.0000 H       1  UNL1        0.0630
     50 H           2.8722   -0.6154    0.0000 H       1  UNL1        0.0619
     51 H           5.9145    0.6485    0.0000 H       1  UNL1        0.0235
     52 H           5.2993    1.2733    0.0000 H       1  UNL1        0.0235
     53 H           4.6745    0.6581    0.0000 H       1  UNL1        0.0235
     54 H           8.4182   -0.8443    0.0000 H       1  UNL1        0.0311
     55 H           9.2164   -0.8535    0.0000 H       1  UNL1        0.0311
     56 H           7.6188   -1.3768    0.0000 H       1  UNL1        0.0238
     57 H           8.4658   -1.1498    0.0000 H       1  UNL1        0.0238
     58 H           8.2388   -0.3029    0.0000 H       1  UNL1        0.0238
     59 H           9.9379   -0.4444    0.0000 H       1  UNL1        0.0279
     60 H          10.3397    0.2454    0.0000 H       1  UNL1        0.0279
     61 H           8.5752    3.3582    0.0000 H       1  UNL1        0.0276
     62 H           8.1894    2.6593    0.0000 H       1  UNL1        0.0276
     63 H          10.8817    1.1325    0.0000 H       1  UNL1        0.0276
     64 H          11.2835    1.8223    0.0000 H       1  UNL1        0.0276
     65 H           4.3109   -3.1142    0.0000 H       1  UNL1        0.0241
     66 H           5.1587   -3.3378    0.0000 H       1  UNL1        0.0241
     67 H           5.3824   -2.4900    0.0000 H       1  UNL1        0.0241
     68 H          11.2835    2.6951    0.0000 H       1  UNL1        0.0271
     69 H          10.8817    3.3849    0.0000 H       1  UNL1        0.0271
     70 H           2.0000   -1.5801    0.0000 H       1  UNL1        0.2099
     71 H           2.5590    0.8194    0.0000 H       1  UNL1        0.2099
     72 H           9.7522    4.5128    0.0000 H       1  UNL1        0.0235
     73 H           8.9027    4.7299    0.0000 H       1  UNL1        0.0235
     74 H           8.6855    3.8804    0.0000 H       1  UNL1        0.0235
     75 H          10.7593    3.9044    0.0000 H       1  UNL1        0.0235
     76 H          10.5226    4.7487    0.0000 H       1  UNL1        0.0235
     77 H           9.6783    4.5120    0.0000 H       1  UNL1        0.0235
     78 H           4.0421   -4.2082    0.0000 H       1  UNL1        0.2951
     79 H          12.0001    0.8885    0.0000 H       1  UNL1        0.2951
@<TRIPOS>BOND
     1    21     1    1
     2     1    70    1
     3    22     2    1
     4     2    71    1
     5     3    32    1
     6     3    78    1
     7     4    32    2
     8     5    33    1
     9     5    79    1
    10     6    33    2
    11     7     8    1
    12     7    10    1
    13     7    15    1
    14     7    23    1
    15     8     9    1
    16     8    16    1
    17     8    36    1
    18     9    11    1
    19     9    14    1
    20     9    25    1
    21    10    12    1
    22    10    13    1
    23    10    37    1
    24    11    13    1
    25    11    38    1
    26    11    39    1
    27    12    21    1
    28    12    30    1
    29    12    32    1
    30    13    40    1
    31    13    41    1
    32    14    17    2
    33    14    24    1
    34    15    22    1
    35    15    42    1
    36    15    43    1
    37    16    20    1
    38    16    44    1
    39    16    45    1
    40    17    18    1
    41    17    20    1
    42    18    19    1
    43    18    27    1
    44    18    46    1
    45    19    26    1
    46    19    28    1
    47    19    33    1
    48    20    47    1
    49    20    48    1
    50    21    22    1
    51    21    49    1
    52    22    50    1
    53    23    51    1
    54    23    52    1
    55    23    53    1
    56    24    26    1
    57    24    54    1
    58    24    55    1
    59    25    56    1
    60    25    57    1
    61    25    58    1
    62    26    59    1
    63    26    60    1
    64    27    29    1
    65    27    61    1
    66    27    62    1
    67    28    31    1
    68    28    63    1
    69    28    64    1
    70    29    31    1
    71    29    34    1
    72    29    35    1
    73    30    65    1
    74    30    66    1
    75    30    67    1
    76    31    68    1
    77    31    69    1
    78    34    75    1
    79    34    76    1
    80    34    77    1
    81    35    72    1
    82    35    73    1
    83    35    74    1
