@<TRIPOS>MOLECULE
IMPHY016932
 29 28 0 0 0
SMALL
GASTEIGER

@<TRIPOS>ATOM
      1 O           5.4641    0.7500    0.0000 O.3     1  UNL1       -0.3755
      2 C           7.1962    0.7500    0.0000 C.3     1  UNL1       -0.0087
      3 C           6.3301    0.2500    0.0000 C.3     1  UNL1        0.0517
      4 C           8.0622    0.2500    0.0000 C.2     1  UNL1       -0.0775
      5 C           4.5981    0.2500    0.0000 C.3     1  UNL1        0.0661
      6 C           3.7320    0.7500    0.0000 C.2     1  UNL1       -0.0600
      7 C           2.8660    0.2500    0.0000 C.2     1  UNL1       -0.0775
      8 C           8.9282    0.7500    0.0000 C.3     1  UNL1       -0.0440
      9 C           2.0000    0.7500    0.0000 C.3     1  UNL1       -0.0440
     10 C           2.8660   -0.7500    0.0000 C.3     1  UNL1       -0.0440
     11 C           8.0622   -0.7500    0.0000 C.2     1  UNL1       -0.0996
     12 H           7.5947    1.2250    0.0000 H       1  UNL1        0.0332
     13 H           6.7976    1.2250    0.0000 H       1  UNL1        0.0332
     14 H           5.9316   -0.2249    0.0000 H       1  UNL1        0.0563
     15 H           6.7287   -0.2249    0.0000 H       1  UNL1        0.0563
     16 H           4.1996   -0.2249    0.0000 H       1  UNL1        0.0604
     17 H           4.9966   -0.2249    0.0000 H       1  UNL1        0.0604
     18 H           3.7320    1.3700    0.0000 H       1  UNL1        0.0594
     19 H           9.2382    0.2131    0.0000 H       1  UNL1        0.0274
     20 H           9.4651    1.0600    0.0000 H       1  UNL1        0.0274
     21 H           8.6182    1.2869    0.0000 H       1  UNL1        0.0274
     22 H           2.3100    1.2869    0.0000 H       1  UNL1        0.0274
     23 H           1.4631    1.0600    0.0000 H       1  UNL1        0.0274
     24 H           1.6900    0.2131    0.0000 H       1  UNL1        0.0274
     25 H           2.2460   -0.7500    0.0000 H       1  UNL1        0.0274
     26 H           2.8660   -1.3700    0.0000 H       1  UNL1        0.0274
     27 H           3.4860   -0.7500    0.0000 H       1  UNL1        0.0274
     28 H           7.5252   -1.0600    0.0000 H       1  UNL1        0.0534
     29 H           8.5991   -1.0600    0.0000 H       1  UNL1        0.0534
@<TRIPOS>BOND
     1     1     3    1
     2     1     5    1
     3     2     3    1
     4     2     4    1
     5     2    12    1
     6     2    13    1
     7     3    14    1
     8     3    15    1
     9     4     8    1
    10     4    11    2
    11     5     6    1
    12     5    16    1
    13     5    17    1
    14     6     7    2
    15     6    18    1
    16     7     9    1
    17     7    10    1
    18     8    19    1
    19     8    20    1
    20     8    21    1
    21     9    22    1
    22     9    23    1
    23     9    24    1
    24    10    25    1
    25    10    26    1
    26    10    27    1
    27    11    28    1
    28    11    29    1
