@<TRIPOS>MOLECULE
IMPHY006494
 85 88 0 0 0
SMALL
GASTEIGER

@<TRIPOS>ATOM
      1 O           3.7320   -2.9568    0.0000 O.3     1  UNL1       -0.4610
      2 O           2.8718   -1.4534    0.0000 O.2     1  UNL1       -0.2512
      3 C           9.1251    0.0956    0.0000 C.3     1  UNL1       -0.0199
      4 C           9.1251   -0.9044    0.0000 C.3     1  UNL1       -0.0051
      5 C           7.3931   -0.9044    0.0000 C.3     1  UNL1       -0.0137
      6 C           6.4831   -1.4113    0.0000 C.3     1  UNL1       -0.0217
      7 C          10.0713    0.4003    0.0000 C.3     1  UNL1       -0.0322
      8 C           8.2591   -1.4044    0.0000 C.2     1  UNL1       -0.0634
      9 C           6.4750   -2.4529    0.0000 C.3     1  UNL1       -0.0231
     10 C           8.2591    0.5956    0.0000 C.3     1  UNL1       -0.0460
     11 C          10.0713   -1.2092    0.0000 C.3     1  UNL1       -0.0431
     12 C           7.3931    0.0956    0.0000 C.3     1  UNL1       -0.0455
     13 C          10.6550   -0.4044    0.0000 C.3     1  UNL1       -0.0486
     14 C           5.5396   -3.0026    0.0000 C.3     1  UNL1        0.0058
     15 C           5.5562   -0.8472    0.0000 C.3     1  UNL1       -0.0434
     16 C           7.3771   -2.9737    0.0000 C.3     1  UNL1       -0.0305
     17 C           9.1251    1.0956    0.0000 C.3     1  UNL1       -0.0585
     18 C          10.3820    1.3508    0.0000 C.3     1  UNL1       -0.0405
     19 C           9.1251   -1.9044    0.0000 C.3     1  UNL1       -0.0553
     20 C           8.2752   -2.4459    0.0000 C.2     1  UNL1       -0.0836
     21 C           4.6000   -2.4601    0.0000 C.3     1  UNL1        0.1084
     22 C           6.4908   -0.4113    0.0000 C.3     1  UNL1       -0.0587
     23 C           4.6084   -1.3751    0.0000 C.3     1  UNL1       -0.0146
     24 C           5.0430   -3.8705    0.0000 C.3     1  UNL1       -0.0562
     25 C           6.0430   -3.8667    0.0000 C.3     1  UNL1       -0.0562
     26 C          11.3605    1.5570    0.0000 C.3     1  UNL1       -0.0502
     27 C           9.7142    2.0951    0.0000 C.3     1  UNL1       -0.0621
     28 C          11.6712    2.5076    0.0000 C.3     1  UNL1       -0.0528
     29 C          12.6497    2.7138    0.0000 C.3     1  UNL1       -0.0533
     30 C           2.8680   -2.4534    0.0000 C.2     1  UNL1        0.3042
     31 C          12.9603    3.6643    0.0000 C.3     1  UNL1       -0.0559
     32 C           2.0000   -2.9501    0.0000 C.3     1  UNL1        0.0332
     33 C          13.9388    3.8705    0.0000 C.3     1  UNL1       -0.0653
     34 H           8.1292   -0.4794    0.0000 H       1  UNL1        0.0351
     35 H          10.9110    0.5322    0.0000 H       1  UNL1        0.0309
     36 H           6.4783   -3.3029    0.0000 H       1  UNL1        0.0316
     37 H           8.6576    1.0705    0.0000 H       1  UNL1        0.0271
     38 H           7.8606    1.0705    0.0000 H       1  UNL1        0.0271
     39 H           9.8203   -1.7760    0.0000 H       1  UNL1        0.0274
     40 H          10.6087   -1.5184    0.0000 H       1  UNL1        0.0274
     41 H           7.1810    0.6782    0.0000 H       1  UNL1        0.0271
     42 H           6.7825   -0.0121    0.0000 H       1  UNL1        0.0271
     43 H          11.1158   -0.8191    0.0000 H       1  UNL1        0.0268
     44 H          11.1158    0.0103    0.0000 H       1  UNL1        0.0268
     45 H           5.9644   -0.3805    0.0000 H       1  UNL1        0.0272
     46 H           5.1663   -0.3651    0.0000 H       1  UNL1        0.0272
     47 H           6.9798   -3.4496    0.0000 H       1  UNL1        0.0310
     48 H           7.7781   -3.4466    0.0000 H       1  UNL1        0.0310
     49 H           9.7451    1.0956    0.0000 H       1  UNL1        0.0235
     50 H           9.1251    1.7156    0.0000 H       1  UNL1        0.0235
     51 H           8.5051    1.0956    0.0000 H       1  UNL1        0.0235
     52 H          10.5746    1.9402    0.0000 H       1  UNL1        0.0301
     53 H           8.5051   -1.9044    0.0000 H       1  UNL1        0.0238
     54 H           9.1251   -2.5244    0.0000 H       1  UNL1        0.0238
     55 H           9.7451   -1.9044    0.0000 H       1  UNL1        0.0238
     56 H           8.8156   -2.7497    0.0000 H       1  UNL1        0.0572
     57 H           4.0648   -2.1470    0.0000 H       1  UNL1        0.0739
     58 H           7.1108   -0.4161    0.0000 H       1  UNL1        0.0235
     59 H           6.4956    0.2087    0.0000 H       1  UNL1        0.0235
     60 H           5.8708   -0.4065    0.0000 H       1  UNL1        0.0235
     61 H           4.4038   -0.7898    0.0000 H       1  UNL1        0.0301
     62 H           3.9967   -1.4765    0.0000 H       1  UNL1        0.0301
     63 H           5.5072   -4.1788    0.0000 H       1  UNL1        0.0236
     64 H           6.3550   -4.4024    0.0000 H       1  UNL1        0.0236
     65 H           6.5787   -3.5546    0.0000 H       1  UNL1        0.0236
     66 H           4.5048   -3.5626    0.0000 H       1  UNL1        0.0236
     67 H           4.7350   -4.4087    0.0000 H       1  UNL1        0.0236
     68 H           5.5811   -4.1785    0.0000 H       1  UNL1        0.0236
     69 H          11.3811    0.9374    0.0000 H       1  UNL1        0.0268
     70 H          11.9743    1.4697    0.0000 H       1  UNL1        0.0268
     71 H          10.1756    2.5092    0.0000 H       1  UNL1        0.0233
     72 H           9.3001    2.5566    0.0000 H       1  UNL1        0.0233
     73 H           9.2527    1.6811    0.0000 H       1  UNL1        0.0233
     74 H          11.6506    3.1272    0.0000 H       1  UNL1        0.0265
     75 H          11.0574    2.5949    0.0000 H       1  UNL1        0.0265
     76 H          12.6702    2.0941    0.0000 H       1  UNL1        0.0265
     77 H          13.2635    2.6264    0.0000 H       1  UNL1        0.0265
     78 H          12.9398    4.2840    0.0000 H       1  UNL1        0.0263
     79 H          12.3465    3.7517    0.0000 H       1  UNL1        0.0263
     80 H           1.6921   -2.4119    0.0000 H       1  UNL1        0.0342
     81 H           1.4619   -3.2580    0.0000 H       1  UNL1        0.0342
     82 H           2.3079   -3.4882    0.0000 H       1  UNL1        0.0342
     83 H          14.0667    3.2639    0.0000 H       1  UNL1        0.0230
     84 H          14.5455    3.9984    0.0000 H       1  UNL1        0.0230
     85 H          13.8110    4.4772    0.0000 H       1  UNL1        0.0230
@<TRIPOS>BOND
     1    21     1    1
     2     1    30    1
     3     2    30    2
     4     3     4    1
     5     3     7    1
     6     3    10    1
     7     3    17    1
     8     4     8    1
     9     4    11    1
    10     4    19    1
    11     5     6    1
    12     5     8    1
    13     5    12    1
    14     5    34    1
    15     6     9    1
    16     6    15    1
    17     6    22    1
    18     7    13    1
    19     7    18    1
    20     7    35    1
    21     8    20    2
    22     9    14    1
    23     9    16    1
    24     9    36    1
    25    10    12    1
    26    10    37    1
    27    10    38    1
    28    11    13    1
    29    11    39    1
    30    11    40    1
    31    12    41    1
    32    12    42    1
    33    13    43    1
    34    13    44    1
    35    14    21    1
    36    14    24    1
    37    14    25    1
    38    15    23    1
    39    15    45    1
    40    15    46    1
    41    16    20    1
    42    16    47    1
    43    16    48    1
    44    17    49    1
    45    17    50    1
    46    17    51    1
    47    18    26    1
    48    18    27    1
    49    18    52    1
    50    19    53    1
    51    19    54    1
    52    19    55    1
    53    20    56    1
    54    21    23    1
    55    21    57    1
    56    22    58    1
    57    22    59    1
    58    22    60    1
    59    23    61    1
    60    23    62    1
    61    24    66    1
    62    24    67    1
    63    24    68    1
    64    25    63    1
    65    25    64    1
    66    25    65    1
    67    26    28    1
    68    26    69    1
    69    26    70    1
    70    27    71    1
    71    27    72    1
    72    27    73    1
    73    28    29    1
    74    28    74    1
    75    28    75    1
    76    29    31    1
    77    29    76    1
    78    29    77    1
    79    30    32    1
    80    31    33    1
    81    31    78    1
    82    31    79    1
    83    32    80    1
    84    32    81    1
    85    32    82    1
    86    33    83    1
    87    33    84    1
    88    33    85    1
