@<TRIPOS>MOLECULE
IMPHY016452
 21 21 0 0 0
SMALL
GASTEIGER

@<TRIPOS>ATOM
      1 O           5.3692    1.5194    0.0000 O.2     1  UNL1       -0.2960
      2 C           3.6942   -0.5684    0.0000 C.3     1  UNL1       -0.0131
      3 C           4.0032   -1.5194    0.0000 C.3     1  UNL1       -0.0427
      4 C           5.0032   -1.5194    0.0000 C.3     1  UNL1       -0.0336
      5 C           2.7431   -0.2593    0.0000 C.3     1  UNL1       -0.0490
      6 C           4.5032    0.0194    0.0000 C.2     1  UNL1       -0.0090
      7 C           5.3122   -0.5684    0.0000 C.2     1  UNL1       -0.0775
      8 C           2.0000   -0.9285    0.0000 C.3     1  UNL1       -0.0647
      9 C           4.5032    1.0194    0.0000 C.2     1  UNL1        0.1462
     10 H           3.2558   -1.0068    0.0000 H       1  UNL1        0.0350
     11 H           3.3968   -1.6483    0.0000 H       1  UNL1        0.0274
     12 H           4.0680   -2.1360    0.0000 H       1  UNL1        0.0274
     13 H           4.9384   -2.1360    0.0000 H       1  UNL1        0.0308
     14 H           5.6097   -1.6483    0.0000 H       1  UNL1        0.0308
     15 H           3.0342    0.2881    0.0000 H       1  UNL1        0.0268
     16 H           2.2546    0.1224    0.0000 H       1  UNL1        0.0268
     17 H           5.9019   -0.3768    0.0000 H       1  UNL1        0.0576
     18 H           1.5851   -0.4677    0.0000 H       1  UNL1        0.0230
     19 H           1.5392   -1.3433    0.0000 H       1  UNL1        0.0230
     20 H           2.4149   -1.3892    0.0000 H       1  UNL1        0.0230
     21 H           3.9663    1.3294    0.0000 H       1  UNL1        0.1078
@<TRIPOS>BOND
     1     1     9    2
     2     2     3    1
     3     2     5    1
     4     2     6    1
     5     2    10    1
     6     3     4    1
     7     3    11    1
     8     3    12    1
     9     4     7    1
    10     4    13    1
    11     4    14    1
    12     5     8    1
    13     5    15    1
    14     5    16    1
    15     6     7    2
    16     6     9    1
    17     7    17    1
    18     8    18    1
    19     8    19    1
    20     8    20    1
    21     9    21    1
