@<TRIPOS>MOLECULE
IMPHY013710
 108 112 0 0 0
SMALL
GASTEIGER

@<TRIPOS>ATOM
      1 O           5.4950   -0.7290    0.0000 O.3     1  UNL1       -0.3915
      2 O           6.3905    4.8375    0.0000 O.3     1  UNL1       -0.3915
      3 O           7.5889   -2.1558    0.0000 O.3     1  UNL1       -0.3422
      4 O           2.6062    5.0045    0.0000 O.3     1  UNL1       -0.3912
      5 O           5.8568   -2.1558    0.0000 O.3     1  UNL1       -0.3405
      6 O          10.5889   -1.1558    0.0000 O.3     1  UNL1       -0.3875
      7 O           7.5889   -4.1558    0.0000 O.3     1  UNL1       -0.3841
      8 O           5.8568   -5.1558    0.0000 O.3     1  UNL1       -0.3864
      9 O           4.1248   -4.1558    0.0000 O.3     1  UNL1       -0.3865
     10 O           4.1248   -1.1558    0.0000 O.3     1  UNL1       -0.3924
     11 C           6.4270    2.1226    0.0000 C.3     1  UNL1       -0.0206
     12 C           7.0948    1.3783    0.0000 C.3     1  UNL1       -0.0208
     13 C           5.4485    1.9164    0.0000 C.3     1  UNL1       -0.0269
     14 C           4.7410    2.6808    0.0000 C.3     1  UNL1       -0.0228
     15 C           6.7842    0.4278    0.0000 C.3     1  UNL1       -0.0036
     16 C           5.0569    3.6734    0.0000 C.3     1  UNL1       -0.0018
     17 C           6.7658    3.1076    0.0000 C.3     1  UNL1       -0.0204
     18 C           7.5889   -0.1558    0.0000 C.3     1  UNL1       -0.0063
     19 C           5.1378    0.9659    0.0000 C.3     1  UNL1       -0.0227
     20 C           5.8057    0.2216    0.0000 C.3     1  UNL1        0.0592
     21 C           8.0889    1.3740    0.0000 C.3     1  UNL1       -0.0464
     22 C           6.0762    3.8882    0.0000 C.3     1  UNL1        0.0597
     23 C           4.3386    4.4865    0.0000 C.3     1  UNL1       -0.0033
     24 C           8.3936    0.4278    0.0000 C.3     1  UNL1       -0.0467
     25 C           3.6848    2.4326    0.0000 C.3     1  UNL1       -0.0446
     26 C           7.2760    2.6510    0.0000 C.3     1  UNL1       -0.0587
     27 C           7.7118    2.1652    0.0000 C.3     1  UNL1       -0.0587
     28 C           4.4376    1.7280    0.0000 C.3     1  UNL1       -0.0589
     29 C           7.5889   -1.1558    0.0000 C.3     1  UNL1        0.0731
     30 C           3.2769    4.2628    0.0000 C.3     1  UNL1        0.0607
     31 C           2.9478    3.2289    0.0000 C.3     1  UNL1       -0.0258
     32 C           4.1361    5.4658    0.0000 C.3     1  UNL1       -0.0571
     33 C           5.0854    5.1515    0.0000 C.3     1  UNL1       -0.0571
     34 C           8.5889   -1.1558    0.0000 C.3     1  UNL1       -0.0210
     35 C           6.5889   -1.1558    0.0000 C.3     1  UNL1       -0.0354
     36 C           9.0889   -2.0218    0.0000 C.3     1  UNL1       -0.0204
     37 C           6.7229   -2.6558    0.0000 C.3     1  UNL1        0.1885
     38 C          10.0889   -2.0218    0.0000 C.3     1  UNL1        0.0758
     39 C           6.7229   -3.6558    0.0000 C.3     1  UNL1        0.1341
     40 C           5.8568   -4.1558    0.0000 C.3     1  UNL1        0.1141
     41 C           4.9908   -2.6558    0.0000 C.3     1  UNL1        0.1130
     42 C           4.9908   -3.6558    0.0000 C.3     1  UNL1        0.1119
     43 C          10.5889   -2.8879    0.0000 C.2     1  UNL1       -0.0516
     44 C           4.1248   -2.1558    0.0000 C.3     1  UNL1        0.0730
     45 C          11.5889   -2.8879    0.0000 C.3     1  UNL1       -0.0416
     46 C          10.0889   -3.7539    0.0000 C.2     1  UNL1       -0.0973
     47 H           5.8625    1.4549    0.0000 H       1  UNL1        0.0312
     48 H           6.6550   -0.1786    0.0000 H       1  UNL1        0.0335
     49 H           5.2518    4.2620    0.0000 H       1  UNL1        0.0337
     50 H           7.3089    2.8086    0.0000 H       1  UNL1        0.0296
     51 H           7.1534    3.5915    0.0000 H       1  UNL1        0.0296
     52 H           8.1412   -0.4375    0.0000 H       1  UNL1        0.0332
     53 H           4.5909    1.2579    0.0000 H       1  UNL1        0.0293
     54 H           4.7553    0.4780    0.0000 H       1  UNL1        0.0293
     55 H           6.2197   -0.2399    0.0000 H       1  UNL1        0.0596
     56 H           8.6958    1.5010    0.0000 H       1  UNL1        0.0271
     57 H           8.0264    1.9908    0.0000 H       1  UNL1        0.0271
     58 H           5.6630    4.3505    0.0000 H       1  UNL1        0.0596
     59 H           8.7029   -0.1096    0.0000 H       1  UNL1        0.0269
     60 H           8.9605    0.6788    0.0000 H       1  UNL1        0.0269
     61 H           3.1644    2.0956    0.0000 H       1  UNL1        0.0271
     62 H           3.9278    1.8622    0.0000 H       1  UNL1        0.0271
     63 H           7.6036    2.1247    0.0000 H       1  UNL1        0.0235
     64 H           7.8023    2.9787    0.0000 H       1  UNL1        0.0235
     65 H           6.9483    3.1774    0.0000 H       1  UNL1        0.0235
     66 H           8.1998    1.7827    0.0000 H       1  UNL1        0.0235
     67 H           8.0944    2.6532    0.0000 H       1  UNL1        0.0235
     68 H           7.2240    2.5478    0.0000 H       1  UNL1        0.0235
     69 H           3.8468    1.9160    0.0000 H       1  UNL1        0.0235
     70 H           4.2496    1.1372    0.0000 H       1  UNL1        0.0235
     71 H           5.0284    1.5399    0.0000 H       1  UNL1        0.0235
     72 H           3.4684    4.8525    0.0000 H       1  UNL1        0.0599
     73 H           2.3979    3.5153    0.0000 H       1  UNL1        0.0290
     74 H           2.5715    2.7361    0.0000 H       1  UNL1        0.0290
     75 H           4.7433    5.5914    0.0000 H       1  UNL1        0.0236
     76 H           4.0106    6.0730    0.0000 H       1  UNL1        0.0236
     77 H           3.5290    5.3403    0.0000 H       1  UNL1        0.0236
     78 H           5.4977    4.6884    0.0000 H       1  UNL1        0.0236
     79 H           5.5485    5.5638    0.0000 H       1  UNL1        0.0236
     80 H           4.6732    5.6146    0.0000 H       1  UNL1        0.0236
     81 H           4.8883   -0.8568    0.0000 H       1  UNL1        0.2098
     82 H           6.9976    4.9630    0.0000 H       1  UNL1        0.2098
     83 H           9.1715   -0.9438    0.0000 H       1  UNL1        0.0294
     84 H           8.4812   -0.5452    0.0000 H       1  UNL1        0.0294
     85 H           6.5889   -0.5358    0.0000 H       1  UNL1        0.0257
     86 H           5.9689   -1.1558    0.0000 H       1  UNL1        0.0257
     87 H           6.5889   -1.7758    0.0000 H       1  UNL1        0.0257
     88 H           2.0000    4.8743    0.0000 H       1  UNL1        0.2098
     89 H           8.5063   -2.2339    0.0000 H       1  UNL1        0.0294
     90 H           9.1966   -2.6324    0.0000 H       1  UNL1        0.0294
     91 H           7.2598   -2.9658    0.0000 H       1  UNL1        0.0938
     92 H          10.7089   -2.0218    0.0000 H       1  UNL1        0.0640
     93 H           6.7229   -4.2758    0.0000 H       1  UNL1        0.0671
     94 H           5.3199   -4.4658    0.0000 H       1  UNL1        0.0648
     95 H           4.9908   -2.0358    0.0000 H       1  UNL1        0.0647
     96 H           4.4539   -3.3458    0.0000 H       1  UNL1        0.0647
     97 H          11.2089   -1.1558    0.0000 H       1  UNL1        0.2102
     98 H           7.5889   -4.7758    0.0000 H       1  UNL1        0.2101
     99 H           3.5142   -2.0482    0.0000 H       1  UNL1        0.0584
    100 H           3.9128   -2.7384    0.0000 H       1  UNL1        0.0584
    101 H          11.5889   -3.5079    0.0000 H       1  UNL1        0.0275
    102 H          12.2089   -2.8879    0.0000 H       1  UNL1        0.0275
    103 H          11.5889   -2.2679    0.0000 H       1  UNL1        0.0275
    104 H           5.3199   -5.4658    0.0000 H       1  UNL1        0.2100
    105 H           9.4689   -3.7539    0.0000 H       1  UNL1        0.0535
    106 H          10.3989   -4.2908    0.0000 H       1  UNL1        0.0535
    107 H           3.5879   -3.8458    0.0000 H       1  UNL1        0.2100
    108 H           3.5879   -0.8458    0.0000 H       1  UNL1        0.2095
@<TRIPOS>BOND
     1     1    20    1
     2     1    81    1
     3     2    22    1
     4     2    82    1
     5     3    29    1
     6     3    37    1
     7     4    30    1
     8     4    88    1
     9     5    37    1
    10     5    41    1
    11     6    38    1
    12     6    97    1
    13     7    39    1
    14     7    98    1
    15     8    40    1
    16     8   104    1
    17     9    42    1
    18     9   107    1
    19    10    44    1
    20    10   108    1
    21    11    12    1
    22    11    13    1
    23    11    17    1
    24    11    26    1
    25    12    15    1
    26    12    21    1
    27    12    27    1
    28    13    14    1
    29    13    19    1
    30    13    47    1
    31    14    16    1
    32    14    25    1
    33    14    28    1
    34    15    18    1
    35    15    20    1
    36    15    48    1
    37    16    22    1
    38    16    23    1
    39    16    49    1
    40    17    22    1
    41    17    50    1
    42    17    51    1
    43    18    24    1
    44    18    29    1
    45    18    52    1
    46    19    20    1
    47    19    53    1
    48    19    54    1
    49    20    55    1
    50    21    24    1
    51    21    56    1
    52    21    57    1
    53    22    58    1
    54    23    30    1
    55    23    32    1
    56    23    33    1
    57    24    59    1
    58    24    60    1
    59    25    31    1
    60    25    61    1
    61    25    62    1
    62    26    63    1
    63    26    64    1
    64    26    65    1
    65    27    66    1
    66    27    67    1
    67    27    68    1
    68    28    69    1
    69    28    70    1
    70    28    71    1
    71    29    34    1
    72    29    35    1
    73    30    31    1
    74    30    72    1
    75    31    73    1
    76    31    74    1
    77    32    75    1
    78    32    76    1
    79    32    77    1
    80    33    78    1
    81    33    79    1
    82    33    80    1
    83    34    36    1
    84    34    83    1
    85    34    84    1
    86    35    85    1
    87    35    86    1
    88    35    87    1
    89    36    38    1
    90    36    89    1
    91    36    90    1
    92    37    39    1
    93    37    91    1
    94    38    43    1
    95    38    92    1
    96    39    40    1
    97    39    93    1
    98    40    42    1
    99    40    94    1
   100    41    42    1
   101    41    44    1
   102    41    95    1
   103    42    96    1
   104    43    45    1
   105    43    46    2
   106    44    99    1
   107    44   100    1
   108    45   101    1
   109    45   102    1
   110    45   103    1
   111    46   105    1
   112    46   106    1
