@<TRIPOS>MOLECULE
IMPHY005932
 59 62 0 0 0
SMALL
GASTEIGER

@<TRIPOS>ATOM
      1 O           8.7716    2.1716    0.0000 O.3     1  UNL1       -0.4645
      2 O           2.0000   -2.7330    0.0000 O.2     1  UNL1       -0.3004
      3 O          10.3870    1.5469    0.0000 O.2     1  UNL1       -0.2512
      4 C           6.2038   -0.2420    0.0000 C.3     1  UNL1       -0.0253
      5 C           5.3352    0.2537    0.0000 C.3     1  UNL1       -0.0297
      6 C           4.4278   -0.2577    0.0000 C.3     1  UNL1       -0.0250
      7 C           4.4250   -1.2993    0.0000 C.3     1  UNL1       -0.0235
      8 C           6.1793    0.9393    0.0000 C.3     1  UNL1       -0.0439
      9 C           6.8554    1.9084    0.0000 C.3     1  UNL1       -0.0346
     10 C           7.1328    0.1280    0.0000 C.3     1  UNL1       -0.0409
     11 C           6.2250   -1.2834    0.0000 C.3     1  UNL1       -0.0468
     12 C           7.4228    1.0850    0.0000 C.3     1  UNL1       -0.0033
     13 C           5.1813    1.2417    0.0000 C.3     1  UNL1       -0.0489
     14 C           5.3296   -1.8156    0.0000 C.3     1  UNL1       -0.0483
     15 C           5.8578    1.9782    0.0000 C.3     1  UNL1       -0.0495
     16 C           3.4923   -1.8537    0.0000 C.3     1  UNL1        0.0265
     17 C           3.4982    0.3017    0.0000 C.3     1  UNL1       -0.0470
     18 C           4.4305    0.7423    0.0000 C.3     1  UNL1       -0.0590
     19 C           2.5500   -1.3159    0.0000 C.3     1  UNL1       -0.0409
     20 C           2.5529   -0.2309    0.0000 C.3     1  UNL1       -0.0517
     21 C           8.4109    1.2390    0.0000 C.3     1  UNL1        0.0955
     22 C           3.9999   -2.7153    0.0000 C.3     1  UNL1       -0.0528
     23 C           3.0000   -2.7241    0.0000 C.2     1  UNL1        0.1264
     24 C           9.7596    2.3256    0.0000 C.2     1  UNL1        0.3040
     25 C          10.1203    3.2583    0.0000 C.3     1  UNL1        0.0332
     26 H           6.0352    0.7360    0.0000 H       1  UNL1        0.0311
     27 H           4.4325   -2.1493    0.0000 H       1  UNL1        0.0315
     28 H           5.8050    1.4337    0.0000 H       1  UNL1        0.0273
     29 H           5.5936    0.7359    0.0000 H       1  UNL1        0.0273
     30 H           7.2767    2.6466    0.0000 H       1  UNL1        0.0305
     31 H           7.2283   -0.4846    0.0000 H       1  UNL1        0.0274
     32 H           7.7513    0.0847    0.0000 H       1  UNL1        0.0274
     33 H           6.4459   -1.8627    0.0000 H       1  UNL1        0.0271
     34 H           6.8336   -1.1649    0.0000 H       1  UNL1        0.0271
     35 H           7.7588    1.8658    0.0000 H       1  UNL1        0.0336
     36 H           4.8295    1.7523    0.0000 H       1  UNL1        0.0268
     37 H           4.6053    1.0124    0.0000 H       1  UNL1        0.0268
     38 H           4.9347   -2.2936    0.0000 H       1  UNL1        0.0269
     39 H           5.7329   -2.2865    0.0000 H       1  UNL1        0.0269
     40 H           6.0376    2.5715    0.0000 H       1  UNL1        0.0268
     41 H           5.3193    2.2855    0.0000 H       1  UNL1        0.0268
     42 H           3.9040    0.7704    0.0000 H       1  UNL1        0.0271
     43 H           3.1058    0.7818    0.0000 H       1  UNL1        0.0271
     44 H           5.0505    0.7406    0.0000 H       1  UNL1        0.0235
     45 H           4.4322    1.3623    0.0000 H       1  UNL1        0.0235
     46 H           3.8105    0.7440    0.0000 H       1  UNL1        0.0235
     47 H           1.9394   -1.2082    0.0000 H       1  UNL1        0.0275
     48 H           2.3393   -1.8990    0.0000 H       1  UNL1        0.0275
     49 H           2.3454    0.3533    0.0000 H       1  UNL1        0.0266
     50 H           1.9418   -0.3354    0.0000 H       1  UNL1        0.0266
     51 H           8.3985    0.6191    0.0000 H       1  UNL1        0.0700
     52 H           9.0192    1.1192    0.0000 H       1  UNL1        0.0700
     53 H           3.4658   -3.0300    0.0000 H       1  UNL1        0.0239
     54 H           4.3147   -3.2495    0.0000 H       1  UNL1        0.0239
     55 H           4.5341   -2.4006    0.0000 H       1  UNL1        0.0239
     56 H           3.3147   -3.2583    0.0000 H       1  UNL1        0.1032
     57 H          10.6986    3.0347    0.0000 H       1  UNL1        0.0342
     58 H          10.3440    3.8366    0.0000 H       1  UNL1        0.0342
     59 H           9.5421    3.4819    0.0000 H       1  UNL1        0.0342
@<TRIPOS>BOND
     1     1    21    1
     2     1    24    1
     3     2    23    2
     4     3    24    2
     5     4     5    1
     6     4     8    1
     7     4    10    1
     8     4    11    1
     9     5     6    1
    10     5    13    1
    11     5    26    1
    12     6     7    1
    13     6    17    1
    14     6    18    1
    15     7    14    1
    16     7    16    1
    17     7    27    1
    18     8     9    1
    19     8    28    1
    20     8    29    1
    21     9    12    1
    22     9    15    1
    23     9    30    1
    24    10    12    1
    25    10    31    1
    26    10    32    1
    27    11    14    1
    28    11    33    1
    29    11    34    1
    30    12    21    1
    31    12    35    1
    32    13    15    1
    33    13    36    1
    34    13    37    1
    35    14    38    1
    36    14    39    1
    37    15    40    1
    38    15    41    1
    39    16    19    1
    40    16    22    1
    41    16    23    1
    42    17    20    1
    43    17    42    1
    44    17    43    1
    45    18    44    1
    46    18    45    1
    47    18    46    1
    48    19    20    1
    49    19    47    1
    50    19    48    1
    51    20    49    1
    52    20    50    1
    53    21    51    1
    54    21    52    1
    55    22    53    1
    56    22    54    1
    57    22    55    1
    58    23    56    1
    59    24    25    1
    60    25    57    1
    61    25    58    1
    62    25    59    1
