@<TRIPOS>MOLECULE
IMPHY008565
 44 46 0 0 0
SMALL
GASTEIGER

@<TRIPOS>ATOM
      1 O           7.2764    0.7903    0.0000 O.3     1  UNL1       -0.4846
      2 O           9.8600    1.5950    0.0000 O.3     1  UNL1       -0.3855
      3 O           5.4641    3.5950    0.0000 O.3     1  UNL1       -0.5064
      4 O           6.3301   -0.9050    0.0000 O.2     1  UNL1       -0.2872
      5 C           7.8600    1.5950    0.0000 C.3     1  UNL1        0.1324
      6 C           8.8600    1.5950    0.0000 C.3     1  UNL1        0.0974
      7 C           7.2764    2.3997    0.0000 C.3     1  UNL1        0.0192
      8 C           6.3301    2.0950    0.0000 C.ar    1  UNL1        0.0399
      9 C           6.3301    1.0950    0.0000 C.ar    1  UNL1        0.1386
     10 C           8.8600    2.5950    0.0000 C.3     1  UNL1       -0.0328
     11 C           8.8600    0.5950    0.0000 C.3     1  UNL1       -0.0328
     12 C           5.4641    2.5950    0.0000 C.ar    1  UNL1        0.1237
     13 C           5.4641    0.5950    0.0000 C.ar    1  UNL1        0.0638
     14 C           4.5981    2.0950    0.0000 C.ar    1  UNL1       -0.0190
     15 C           4.5981    1.0950    0.0000 C.ar    1  UNL1       -0.0439
     16 C           5.4641   -0.4050    0.0000 C.2     1  UNL1        0.1896
     17 C           4.5981   -0.9050    0.0000 C.2     1  UNL1       -0.0137
     18 C           4.5981   -1.9050    0.0000 C.2     1  UNL1       -0.0510
     19 C           3.7320   -2.4050    0.0000 C.ar    1  UNL1       -0.0249
     20 C           2.8660   -1.9050    0.0000 C.ar    1  UNL1       -0.0546
     21 C           3.7320   -3.4050    0.0000 C.ar    1  UNL1       -0.0546
     22 C           2.0000   -2.4050    0.0000 C.ar    1  UNL1       -0.0612
     23 C           2.8660   -3.9050    0.0000 C.ar    1  UNL1       -0.0612
     24 C           2.0000   -3.4050    0.0000 C.ar    1  UNL1       -0.0617
     25 H           8.1417    1.0427    0.0000 H       1  UNL1        0.0765
     26 H           7.8137    2.7090    0.0000 H       1  UNL1        0.0352
     27 H           7.0253    2.9666    0.0000 H       1  UNL1        0.0352
     28 H           9.4800    2.5950    0.0000 H       1  UNL1        0.0258
     29 H           8.2400    0.5950    0.0000 H       1  UNL1        0.0258
     30 H           8.8600   -0.0250    0.0000 H       1  UNL1        0.0258
     31 H           9.4800    0.5950    0.0000 H       1  UNL1        0.0258
     32 H           8.8600    3.2150    0.0000 H       1  UNL1        0.0258
     33 H           8.2400    2.5950    0.0000 H       1  UNL1        0.0258
     34 H          10.1700    2.1319    0.0000 H       1  UNL1        0.2103
     35 H           4.0611    0.7850    0.0000 H       1  UNL1        0.0627
     36 H           4.0611    2.4050    0.0000 H       1  UNL1        0.0654
     37 H           4.9272    3.9050    0.0000 H       1  UNL1        0.2921
     38 H           4.0611   -0.5950    0.0000 H       1  UNL1        0.0656
     39 H           5.1350   -2.2150    0.0000 H       1  UNL1        0.0625
     40 H           2.8660   -1.2850    0.0000 H       1  UNL1        0.0623
     41 H           4.2690   -3.7150    0.0000 H       1  UNL1        0.0623
     42 H           1.4631   -2.0950    0.0000 H       1  UNL1        0.0618
     43 H           2.8660   -4.5250    0.0000 H       1  UNL1        0.0618
     44 H           1.4631   -3.7150    0.0000 H       1  UNL1        0.0618
@<TRIPOS>BOND
     1     1     5    1
     2     1     9    1
     3     2     6    1
     4     2    34    1
     5     3    12    1
     6     3    37    1
     7     4    16    2
     8     5     6    1
     9     5     7    1
    10     5    25    1
    11     6    10    1
    12     6    11    1
    13     7     8    1
    14     7    26    1
    15     7    27    1
    16     8     9   ar
    17     8    12   ar
    18     9    13   ar
    19    10    28    1
    20    10    32    1
    21    10    33    1
    22    11    29    1
    23    11    30    1
    24    11    31    1
    25    12    14   ar
    26    13    15   ar
    27    13    16    1
    28    14    15   ar
    29    14    36    1
    30    15    35    1
    31    16    17    1
    32    17    18    2
    33    17    38    1
    34    18    19    1
    35    18    39    1
    36    19    20   ar
    37    19    21   ar
    38    20    22   ar
    39    20    40    1
    40    21    23   ar
    41    21    41    1
    42    22    24   ar
    43    22    42    1
    44    23    24   ar
    45    23    43    1
    46    24    44    1
