@<TRIPOS>MOLECULE
IMPHY000844
 47 51 0 0 0
SMALL
GASTEIGER

@<TRIPOS>ATOM
      1 O           8.7939   -1.2874    0.0000 O.3     1  UNL1       -0.4563
      2 O           6.3981   -3.2874    0.0000 O.3     1  UNL1       -0.4937
      3 O           8.0011    2.8796    0.0000 O.3     1  UNL1       -0.4526
      4 O           6.6073    3.6844    0.0000 O.3     1  UNL1       -0.4526
      5 O           2.8680   -0.2633    0.0000 O.3     1  UNL1       -0.4914
      6 O           2.8680   -2.3116    0.0000 O.3     1  UNL1       -0.4914
      7 O           8.5210   -3.0427    0.0000 O.2     1  UNL1       -0.2448
      8 C           6.3981   -0.2874    0.0000 C.ar    1  UNL1       -0.0025
      9 C           7.2641   -0.7874    0.0000 C.ar    1  UNL1        0.0155
     10 C           5.5320   -0.7874    0.0000 C.ar    1  UNL1       -0.0026
     11 C           7.2641   -1.7874    0.0000 C.ar    1  UNL1        0.1081
     12 C           5.5320   -1.7874    0.0000 C.ar    1  UNL1        0.0289
     13 C           6.3981   -2.2874    0.0000 C.ar    1  UNL1        0.1422
     14 C           8.2103   -0.4827    0.0000 C.3     1  UNL1        0.1193
     15 C           6.3981    0.7126    0.0000 C.ar    1  UNL1       -0.0132
     16 C           4.6381   -0.2528    0.0000 C.ar    1  UNL1       -0.0079
     17 C           8.2103   -2.0922    0.0000 C.2     1  UNL1        0.3435
     18 C           4.6381   -2.3221    0.0000 C.ar    1  UNL1       -0.0051
     19 C           7.2641    1.2126    0.0000 C.ar    1  UNL1       -0.0084
     20 C           3.7320   -0.7666    0.0000 C.ar    1  UNL1        0.1621
     21 C           3.7320   -1.8082    0.0000 C.ar    1  UNL1        0.1622
     22 C           5.5320    1.2126    0.0000 C.ar    1  UNL1       -0.0503
     23 C           7.2641    2.2126    0.0000 C.ar    1  UNL1        0.1668
     24 C           6.3981    2.7126    0.0000 C.ar    1  UNL1        0.1663
     25 C           5.5320    2.2126    0.0000 C.ar    1  UNL1       -0.0156
     26 C           7.5960    3.7874    0.0000 C.3     1  UNL1        0.2332
     27 C           5.5320   -3.7874    0.0000 C.3     1  UNL1        0.0788
     28 C           2.0000   -0.7599    0.0000 C.3     1  UNL1        0.0790
     29 C           2.8718   -3.3116    0.0000 C.3     1  UNL1        0.0790
     30 H           8.7477   -0.1735    0.0000 H       1  UNL1        0.0749
     31 H           7.9593    0.0842    0.0000 H       1  UNL1        0.0749
     32 H           4.6453    0.3672    0.0000 H       1  UNL1        0.0662
     33 H           4.6453   -2.9421    0.0000 H       1  UNL1        0.0662
     34 H           7.8010    0.9026    0.0000 H       1  UNL1        0.0661
     35 H           4.9951    0.9026    0.0000 H       1  UNL1        0.0625
     36 H           4.9951    2.5226    0.0000 H       1  UNL1        0.0655
     37 H           8.1856    3.9792    0.0000 H       1  UNL1        0.1166
     38 H           7.4673    4.3939    0.0000 H       1  UNL1        0.1166
     39 H           5.2220   -3.2505    0.0000 H       1  UNL1        0.0660
     40 H           4.9951   -4.0974    0.0000 H       1  UNL1        0.0660
     41 H           5.8421   -4.3244    0.0000 H       1  UNL1        0.0660
     42 H           1.6921   -0.2218    0.0000 H       1  UNL1        0.0660
     43 H           1.4619   -1.0679    0.0000 H       1  UNL1        0.0660
     44 H           2.3079   -1.2981    0.0000 H       1  UNL1        0.0660
     45 H           2.2518   -3.3140    0.0000 H       1  UNL1        0.0660
     46 H           2.8742   -3.9316    0.0000 H       1  UNL1        0.0660
     47 H           3.4918   -3.3092    0.0000 H       1  UNL1        0.0660
@<TRIPOS>BOND
     1     1    14    1
     2     1    17    1
     3     2    13    1
     4     2    27    1
     5     3    23    1
     6     3    26    1
     7     4    24    1
     8     4    26    1
     9     5    20    1
    10     5    28    1
    11     6    21    1
    12     6    29    1
    13     7    17    2
    14     8     9   ar
    15     8    10   ar
    16     8    15    1
    17     9    11   ar
    18     9    14    1
    19    10    12   ar
    20    10    16   ar
    21    11    13   ar
    22    11    17    1
    23    12    13   ar
    24    12    18   ar
    25    14    30    1
    26    14    31    1
    27    15    19   ar
    28    15    22   ar
    29    16    20   ar
    30    16    32    1
    31    18    21   ar
    32    18    33    1
    33    19    23   ar
    34    19    34    1
    35    20    21   ar
    36    22    25   ar
    37    22    35    1
    38    23    24   ar
    39    24    25   ar
    40    25    36    1
    41    26    37    1
    42    26    38    1
    43    27    39    1
    44    27    40    1
    45    27    41    1
    46    28    42    1
    47    28    43    1
    48    28    44    1
    49    29    45    1
    50    29    46    1
    51    29    47    1
