@<TRIPOS>MOLECULE
IMPHY010492
 53 57 0 0 0
SMALL
GASTEIGER

@<TRIPOS>ATOM
      1 O           6.3696   -2.5949    0.0000 O.3     1  UNL1       -0.3695
      2 O           7.1702   -1.0386    0.0000 O.3     1  UNL1       -0.3910
      3 O           2.9894    0.7978    0.0000 O.3     1  UNL1       -0.4560
      4 O           2.7861   -2.5837    0.0000 O.3     1  UNL1       -0.3917
      5 O           6.3432   -3.5666    0.0000 O.3     1  UNL1       -0.3921
      6 O           2.7075   -0.2544    0.0000 O.2     1  UNL1       -0.2502
      7 O           2.0000    3.7798    0.0000 O.2     1  UNL1       -0.4706
      8 C           5.4381   -1.0386    0.0000 C.3     1  UNL1        0.0551
      9 C           4.5721   -0.5386    0.0000 C.3     1  UNL1       -0.0097
     10 C           5.4542   -2.0801    0.0000 C.3     1  UNL1        0.1051
     11 C           4.5721    0.4614    0.0000 C.3     1  UNL1        0.0777
     12 C           6.3041   -0.5386    0.0000 C.3     1  UNL1        0.0662
     13 C           6.3578   -1.5459    0.0000 C.3     1  UNL1        0.0595
     14 C           5.4381    0.9614    0.0000 C.3     1  UNL1       -0.0253
     15 C           3.6621   -1.0455    0.0000 C.3     1  UNL1       -0.0221
     16 C           4.5561   -2.6079    0.0000 C.3     1  UNL1        0.0052
     17 C           6.3041    0.4614    0.0000 C.3     1  UNL1       -0.0225
     18 C           3.6541   -2.0871    0.0000 C.3     1  UNL1        0.0583
     19 C           4.4676    1.4559    0.0000 C.3     1  UNL1        0.0050
     20 C           5.4696   -3.0800    0.0000 C.3     1  UNL1        0.0740
     21 C           3.6585    0.0546    0.0000 C.2     1  UNL1        0.3146
     22 C           3.4894    1.6638    0.0000 C.3     1  UNL1        0.1320
     23 C           5.4381    1.9614    0.0000 C.3     1  UNL1       -0.0613
     24 C           3.0827    2.5774    0.0000 C.ar    1  UNL1        0.0304
     25 C           3.5827    3.4434    0.0000 C.ar    1  UNL1       -0.0172
     26 C           2.1045    2.7853    0.0000 C.ar    1  UNL1        0.0983
     27 C           2.9136    4.1865    0.0000 C.ar    1  UNL1        0.0921
     28 H           4.0376   -0.2245    0.0000 H       1  UNL1        0.0320
     29 H           6.8411   -0.2286    0.0000 H       1  UNL1        0.0601
     30 H           6.9698   -1.6450    0.0000 H       1  UNL1        0.0567
     31 H           6.5600   -0.9598    0.0000 H       1  UNL1        0.0567
     32 H           5.9751    1.2714    0.0000 H       1  UNL1        0.0310
     33 H           3.4575   -0.4602    0.0000 H       1  UNL1        0.0293
     34 H           3.0504   -1.1468    0.0000 H       1  UNL1        0.0293
     35 H           4.1588   -3.0838    0.0000 H       1  UNL1        0.0319
     36 H           4.9571   -3.0808    0.0000 H       1  UNL1        0.0319
     37 H           6.9147    0.3537    0.0000 H       1  UNL1        0.0293
     38 H           6.5162    1.0440    0.0000 H       1  UNL1        0.0293
     39 H           3.6529   -2.7071    0.0000 H       1  UNL1        0.0594
     40 H           5.0876    1.4559    0.0000 H       1  UNL1        0.0315
     41 H           4.5324    2.0725    0.0000 H       1  UNL1        0.0315
     42 H           4.8574   -2.9818    0.0000 H       1  UNL1        0.0586
     43 H           5.2665   -3.6658    0.0000 H       1  UNL1        0.0586
     44 H           2.8703    1.6963    0.0000 H       1  UNL1        0.0786
     45 H           6.0581    1.9614    0.0000 H       1  UNL1        0.0233
     46 H           5.4381    2.5814    0.0000 H       1  UNL1        0.0233
     47 H           4.8181    1.9614    0.0000 H       1  UNL1        0.0233
     48 H           7.7071   -0.7286    0.0000 H       1  UNL1        0.2098
     49 H           2.7837   -3.2037    0.0000 H       1  UNL1        0.2098
     50 H           6.3528   -4.1865    0.0000 H       1  UNL1        0.2095
     51 H           4.1993    3.5082    0.0000 H       1  UNL1        0.0653
     52 H           1.6438    2.3704    0.0000 H       1  UNL1        0.1033
     53 H           3.0424    4.7930    0.0000 H       1  UNL1        0.1029
@<TRIPOS>BOND
     1     1    10    1
     2     1    13    1
     3    12     2    1
     4     2    48    1
     5     3    21    1
     6     3    22    1
     7    18     4    1
     8     4    49    1
     9     5    20    1
    10     5    50    1
    11     6    21    2
    12     7    26   ar
    13     7    27   ar
    14     8     9    1
    15     8    10    1
    16     8    12    1
    17     8    13    1
    18     9    11    1
    19     9    15    1
    20     9    28    1
    21    10    16    1
    22    10    20    1
    23    11    14    1
    24    11    19    1
    25    11    21    1
    26    12    17    1
    27    12    29    1
    28    13    30    1
    29    13    31    1
    30    14    17    1
    31    14    23    1
    32    14    32    1
    33    15    18    1
    34    15    33    1
    35    15    34    1
    36    16    18    1
    37    16    35    1
    38    16    36    1
    39    17    37    1
    40    17    38    1
    41    18    39    1
    42    19    22    1
    43    19    40    1
    44    19    41    1
    45    20    42    1
    46    20    43    1
    47    22    24    1
    48    22    44    1
    49    23    45    1
    50    23    46    1
    51    23    47    1
    52    24    25   ar
    53    24    26   ar
    54    25    27   ar
    55    25    51    1
    56    26    52    1
    57    27    53    1
