@<TRIPOS>MOLECULE
IMPHY003031
 38 40 0 0 0
SMALL
GASTEIGER

@<TRIPOS>ATOM
      1 O           9.8744   -1.5547    0.0000 O.2     1  UNL1       -0.4628
      2 O           8.0622    1.2500    0.0000 O.3     1  UNL1       -0.4937
      3 O           6.3301    1.2500    0.0000 O.2     1  UNL1       -0.2869
      4 C           8.9282   -0.2500    0.0000 C.ar    1  UNL1        0.0624
      5 C           7.1962   -0.2500    0.0000 C.ar    1  UNL1        0.0643
      6 C           8.0622    0.2500    0.0000 C.ar    1  UNL1        0.1416
      7 C           8.9282   -1.2500    0.0000 C.ar    1  UNL1        0.1383
      8 C           7.1962   -1.2500    0.0000 C.ar    1  UNL1       -0.0439
      9 C           6.3301    0.2500    0.0000 C.2     1  UNL1        0.1925
     10 C           8.0622   -1.7500    0.0000 C.ar    1  UNL1       -0.0179
     11 C           5.4641   -0.2500    0.0000 C.2     1  UNL1       -0.0025
     12 C           9.8744    0.0547    0.0000 C.ar    1  UNL1       -0.0126
     13 C          10.4580   -0.7500    0.0000 C.ar    1  UNL1        0.0932
     14 C           4.5981    0.2500    0.0000 C.2     1  UNL1       -0.0480
     15 C           3.7320   -0.2500    0.0000 C.ar    1  UNL1       -0.0247
     16 C           5.4641   -1.2500    0.0000 C.3     1  UNL1       -0.0360
     17 C           2.8660    0.2500    0.0000 C.ar    1  UNL1       -0.0546
     18 C           3.7320   -1.2500    0.0000 C.ar    1  UNL1       -0.0546
     19 C           8.9282    1.7500    0.0000 C.3     1  UNL1        0.0788
     20 C           2.0000   -0.2500    0.0000 C.ar    1  UNL1       -0.0612
     21 C           2.8660   -1.7500    0.0000 C.ar    1  UNL1       -0.0612
     22 C           2.0000   -1.2500    0.0000 C.ar    1  UNL1       -0.0617
     23 H           6.6592   -1.5600    0.0000 H       1  UNL1        0.0627
     24 H           8.0622   -2.3700    0.0000 H       1  UNL1        0.0655
     25 H          10.0670    0.6441    0.0000 H       1  UNL1        0.0656
     26 H          11.0780   -0.7500    0.0000 H       1  UNL1        0.1030
     27 H           4.5981    0.8700    0.0000 H       1  UNL1        0.0627
     28 H           4.8441   -1.2500    0.0000 H       1  UNL1        0.0279
     29 H           5.4641   -1.8700    0.0000 H       1  UNL1        0.0279
     30 H           6.0841   -1.2500    0.0000 H       1  UNL1        0.0279
     31 H           2.8660    0.8700    0.0000 H       1  UNL1        0.0623
     32 H           4.2690   -1.5600    0.0000 H       1  UNL1        0.0623
     33 H           9.2382    1.2131    0.0000 H       1  UNL1        0.0660
     34 H           9.4651    2.0600    0.0000 H       1  UNL1        0.0660
     35 H           8.6182    2.2869    0.0000 H       1  UNL1        0.0660
     36 H           1.4631    0.0600    0.0000 H       1  UNL1        0.0618
     37 H           2.8660   -2.3700    0.0000 H       1  UNL1        0.0618
     38 H           1.4631   -1.5600    0.0000 H       1  UNL1        0.0618
@<TRIPOS>BOND
     1     1     7   ar
     2     1    13   ar
     3     2     6    1
     4     2    19    1
     5     3     9    2
     6     4     6   ar
     7     4     7   ar
     8     4    12   ar
     9     5     6   ar
    10     5     8   ar
    11     5     9    1
    12     7    10   ar
    13     8    10   ar
    14     8    23    1
    15     9    11    1
    16    10    24    1
    17    11    14    2
    18    11    16    1
    19    12    13   ar
    20    12    25    1
    21    13    26    1
    22    14    15    1
    23    14    27    1
    24    15    17   ar
    25    15    18   ar
    26    16    28    1
    27    16    29    1
    28    16    30    1
    29    17    20   ar
    30    17    31    1
    31    18    21   ar
    32    18    32    1
    33    19    33    1
    34    19    34    1
    35    19    35    1
    36    20    22   ar
    37    20    36    1
    38    21    22   ar
    39    21    37    1
    40    22    38    1
