@<TRIPOS>MOLECULE
IMPHY017522
 22 22 0 0 0
SMALL
GASTEIGER

@<TRIPOS>ATOM
      1 O           2.5369   -0.2500    0.0000 O.3     1  UNL1       -0.5059
      2 O           5.1350    1.2500    0.0000 O.3     1  UNL1       -0.4644
      3 O           3.4030    1.2500    0.0000 O.2     1  UNL1       -0.2448
      4 C           5.1350   -0.7500    0.0000 C.ar    1  UNL1       -0.0329
      5 C           4.2690   -0.2500    0.0000 C.ar    1  UNL1        0.1031
      6 C           3.4030   -0.7500    0.0000 C.ar    1  UNL1        0.1311
      7 C           5.1350   -1.7500    0.0000 C.ar    1  UNL1       -0.0578
      8 C           6.0010   -0.2500    0.0000 C.3     1  UNL1       -0.0388
      9 C           3.4030   -1.7500    0.0000 C.ar    1  UNL1       -0.0193
     10 C           4.2690   -2.2500    0.0000 C.ar    1  UNL1       -0.0580
     11 C           4.2690    0.7500    0.0000 C.2     1  UNL1        0.3427
     12 C           5.1350    2.2500    0.0000 C.3     1  UNL1        0.0820
     13 H           5.6720   -2.0600    0.0000 H       1  UNL1        0.0620
     14 H           6.3110   -0.7869    0.0000 H       1  UNL1        0.0278
     15 H           6.5380    0.0600    0.0000 H       1  UNL1        0.0278
     16 H           5.6910    0.2869    0.0000 H       1  UNL1        0.0278
     17 H           2.8660   -2.0600    0.0000 H       1  UNL1        0.0654
     18 H           4.2690   -2.8700    0.0000 H       1  UNL1        0.0619
     19 H           2.0000   -0.5600    0.0000 H       1  UNL1        0.2922
     20 H           5.7550    2.2500    0.0000 H       1  UNL1        0.0661
     21 H           5.1350    2.8700    0.0000 H       1  UNL1        0.0661
     22 H           4.5150    2.2500    0.0000 H       1  UNL1        0.0661
@<TRIPOS>BOND
     1     1     6    1
     2     1    19    1
     3     2    11    1
     4     2    12    1
     5     3    11    2
     6     4     5   ar
     7     4     7   ar
     8     4     8    1
     9     5     6   ar
    10     5    11    1
    11     6     9   ar
    12     7    10   ar
    13     7    13    1
    14     8    14    1
    15     8    15    1
    16     8    16    1
    17     9    10   ar
    18     9    17    1
    19    10    18    1
    20    12    20    1
    21    12    21    1
    22    12    22    1
