@<TRIPOS>MOLECULE
IMPHY010071
 94 100 0 0 0
SMALL
GASTEIGER

@<TRIPOS>ATOM
      1 O           8.2902    4.0403    0.0000 O.3     1  UNL1       -0.3448
      2 O           6.5177    4.9351    0.0000 O.3     1  UNL1       -0.3480
      3 O           5.1643    1.9864    0.0000 O.2     1  UNL1       -0.2968
      4 O           6.8671   -4.2038    0.0000 O.3     1  UNL1       -0.3454
      5 O           5.1350   -4.2038    0.0000 O.3     1  UNL1       -0.3405
      6 O           6.8671   -6.2038    0.0000 O.3     1  UNL1       -0.3841
      7 O           5.1350   -7.2038    0.0000 O.3     1  UNL1       -0.3864
      8 O           3.4030   -6.2038    0.0000 O.3     1  UNL1       -0.3865
      9 O           2.5369   -4.7038    0.0000 O.3     1  UNL1       -0.3924
     10 C           7.7643    1.4965    0.0000 C.3     1  UNL1       -0.0231
     11 C           6.8963    1.9931    0.0000 C.3     1  UNL1        0.0349
     12 C           7.7681    0.4965    0.0000 C.3     1  UNL1       -0.0335
     13 C           7.1018    2.9657    0.0000 C.3     1  UNL1        0.0052
     14 C           6.9040   -0.0069    0.0000 C.3     1  UNL1       -0.0256
     15 C           6.8920   -1.0484    0.0000 C.3     1  UNL1       -0.0256
     16 C           8.0901    3.0726    0.0000 C.3     1  UNL1        0.0664
     17 C           8.4987    2.1664    0.0000 C.3     1  UNL1       -0.0222
     18 C           6.6995    3.8683    0.0000 C.3     1  UNL1        0.0164
     19 C           7.7920   -1.5727    0.0000 C.3     1  UNL1       -0.0330
     20 C           6.0361    0.4898    0.0000 C.3     1  UNL1        0.0100
     21 C           8.6801   -0.0069    0.0000 C.3     1  UNL1       -0.0494
     22 C           6.0322    1.4898    0.0000 C.2     1  UNL1        0.1401
     23 C           7.4324    4.5311    0.0000 C.3     1  UNL1        0.1732
     24 C           8.6921   -1.0484    0.0000 C.3     1  UNL1       -0.0494
     25 C           5.9421   -1.5727    0.0000 C.3     1  UNL1       -0.0448
     26 C           6.0284    2.4898    0.0000 C.3     1  UNL1       -0.0522
     27 C           7.8046   -2.6576    0.0000 C.3     1  UNL1       -0.0232
     28 C           6.0279   -0.5451    0.0000 C.3     1  UNL1       -0.0590
     29 C           5.9295   -2.6576    0.0000 C.3     1  UNL1       -0.0260
     30 C           6.8671   -3.2038    0.0000 C.3     1  UNL1        0.0621
     31 C           5.7211    4.0750    0.0000 C.3     1  UNL1       -0.0572
     32 C           8.2397    5.1213    0.0000 C.3     1  UNL1        0.0020
     33 C           8.1322    6.1155    0.0000 C.3     1  UNL1       -0.0435
     34 C           7.2174    6.5195    0.0000 C.3     1  UNL1       -0.0201
     35 C           6.4102    5.9293    0.0000 C.3     1  UNL1        0.0535
     36 C           7.1100    7.5138    0.0000 C.3     1  UNL1       -0.0603
     37 C           6.0010   -4.7038    0.0000 C.3     1  UNL1        0.1882
     38 C           6.0010   -5.7038    0.0000 C.3     1  UNL1        0.1341
     39 C           5.1350   -6.2038    0.0000 C.3     1  UNL1        0.1141
     40 C           4.2690   -4.7038    0.0000 C.3     1  UNL1        0.1130
     41 C           4.2690   -5.7038    0.0000 C.3     1  UNL1        0.1119
     42 C           3.4030   -4.2038    0.0000 C.3     1  UNL1        0.0730
     43 H           8.5426    1.1548    0.0000 H       1  UNL1        0.0314
     44 H           8.4993    0.9300    0.0000 H       1  UNL1        0.0307
     45 H           6.2565    2.8762    0.0000 H       1  UNL1        0.0339
     46 H           7.6385   -0.4347    0.0000 H       1  UNL1        0.0313
     47 H           8.9350    3.1658    0.0000 H       1  UNL1        0.0600
     48 H           8.8661    1.6670    0.0000 H       1  UNL1        0.0293
     49 H           9.0340    2.4792    0.0000 H       1  UNL1        0.0293
     50 H           6.3097    3.3862    0.0000 H       1  UNL1        0.0354
     51 H           8.5314   -1.9920    0.0000 H       1  UNL1        0.0307
     52 H           5.4251    0.5951    0.0000 H       1  UNL1        0.0345
     53 H           5.8263   -0.0936    0.0000 H       1  UNL1        0.0345
     54 H           9.2921   -0.1059    0.0000 H       1  UNL1        0.0268
     55 H           8.8824    0.5792    0.0000 H       1  UNL1        0.0268
     56 H           8.9079   -1.6297    0.0000 H       1  UNL1        0.0268
     57 H           9.3017   -0.9353    0.0000 H       1  UNL1        0.0268
     58 H           5.7398   -0.9866    0.0000 H       1  UNL1        0.0271
     59 H           5.3300   -1.6717    0.0000 H       1  UNL1        0.0271
     60 H           6.3363    3.0279    0.0000 H       1  UNL1        0.0239
     61 H           5.4902    2.7977    0.0000 H       1  UNL1        0.0239
     62 H           5.7204    1.9517    0.0000 H       1  UNL1        0.0239
     63 H           8.0204   -3.2389    0.0000 H       1  UNL1        0.0293
     64 H           8.4142   -2.5445    0.0000 H       1  UNL1        0.0293
     65 H           6.3400   -0.0093    0.0000 H       1  UNL1        0.0235
     66 H           5.4922   -0.2330    0.0000 H       1  UNL1        0.0235
     67 H           5.7158   -1.0808    0.0000 H       1  UNL1        0.0235
     68 H           5.3199   -2.5445    0.0000 H       1  UNL1        0.0290
     69 H           5.7137   -3.2389    0.0000 H       1  UNL1        0.0290
     70 H           7.4046   -3.5127    0.0000 H       1  UNL1        0.0597
     71 H           5.8492    4.6816    0.0000 H       1  UNL1        0.0234
     72 H           5.1145    4.2032    0.0000 H       1  UNL1        0.0234
     73 H           5.5929    3.4684    0.0000 H       1  UNL1        0.0234
     74 H           8.5132    4.5649    0.0000 H       1  UNL1        0.0317
     75 H           8.8352    5.2940    0.0000 H       1  UNL1        0.0317
     76 H           8.7508    6.0741    0.0000 H       1  UNL1        0.0270
     77 H           8.2804    6.7176    0.0000 H       1  UNL1        0.0270
     78 H           7.7180    6.8855    0.0000 H       1  UNL1        0.0320
     79 H           6.1367    6.4858    0.0000 H       1  UNL1        0.0563
     80 H           5.8147    5.7567    0.0000 H       1  UNL1        0.0563
     81 H           7.7264    7.5804    0.0000 H       1  UNL1        0.0233
     82 H           7.0433    8.1302    0.0000 H       1  UNL1        0.0233
     83 H           6.4935    7.4471    0.0000 H       1  UNL1        0.0233
     84 H           6.0010   -4.0838    0.0000 H       1  UNL1        0.0937
     85 H           6.0010   -6.3238    0.0000 H       1  UNL1        0.0671
     86 H           4.5981   -6.5138    0.0000 H       1  UNL1        0.0648
     87 H           4.2690   -4.0838    0.0000 H       1  UNL1        0.0647
     88 H           3.7320   -5.3938    0.0000 H       1  UNL1        0.0647
     89 H           6.8671   -6.8238    0.0000 H       1  UNL1        0.2101
     90 H           3.8015   -3.7288    0.0000 H       1  UNL1        0.0584
     91 H           3.0044   -3.7288    0.0000 H       1  UNL1        0.0584
     92 H           4.5981   -7.5138    0.0000 H       1  UNL1        0.2100
     93 H           3.4030   -6.8238    0.0000 H       1  UNL1        0.2100
     94 H           2.0000   -4.3938    0.0000 H       1  UNL1        0.2095
@<TRIPOS>BOND
     1     1    16    1
     2    23     1    1
     3     2    23    1
     4     2    35    1
     5     3    22    2
     6    30     4    1
     7    37     4    1
     8     5    37    1
     9     5    40    1
    10    38     6    1
    11     6    89    1
    12    39     7    1
    13     7    92    1
    14    41     8    1
    15     8    93    1
    16     9    42    1
    17     9    94    1
    18    10    11    1
    19    10    12    1
    20    10    17    1
    21    10    43    1
    22    11    13    1
    23    11    22    1
    24    11    26    1
    25    12    14    1
    26    12    21    1
    27    12    44    1
    28    13    16    1
    29    13    18    1
    30    13    45    1
    31    14    15    1
    32    14    20    1
    33    14    46    1
    34    15    19    1
    35    15    25    1
    36    15    28    1
    37    16    17    1
    38    16    47    1
    39    17    48    1
    40    17    49    1
    41    18    23    1
    42    18    31    1
    43    18    50    1
    44    19    24    1
    45    19    27    1
    46    19    51    1
    47    20    22    1
    48    20    52    1
    49    20    53    1
    50    21    24    1
    51    21    54    1
    52    21    55    1
    53    23    32    1
    54    24    56    1
    55    24    57    1
    56    25    29    1
    57    25    58    1
    58    25    59    1
    59    26    60    1
    60    26    61    1
    61    26    62    1
    62    27    30    1
    63    27    63    1
    64    27    64    1
    65    28    65    1
    66    28    66    1
    67    28    67    1
    68    29    30    1
    69    29    68    1
    70    29    69    1
    71    30    70    1
    72    31    71    1
    73    31    72    1
    74    31    73    1
    75    32    33    1
    76    32    74    1
    77    32    75    1
    78    33    34    1
    79    33    76    1
    80    33    77    1
    81    34    35    1
    82    34    36    1
    83    34    78    1
    84    35    79    1
    85    35    80    1
    86    36    81    1
    87    36    82    1
    88    36    83    1
    89    37    38    1
    90    37    84    1
    91    38    39    1
    92    38    85    1
    93    39    41    1
    94    39    86    1
    95    40    41    1
    96    40    42    1
    97    40    87    1
    98    41    88    1
    99    42    90    1
   100    42    91    1
