@<TRIPOS>MOLECULE
IMPHY015985
 55 56 0 0 0
SMALL
GASTEIGER

@<TRIPOS>ATOM
      1 O           7.2802    0.8155    0.0000 O.3     1  UNL1       -0.3886
      2 C           4.5482    0.8155    0.0000 C.3     1  UNL1       -0.0264
      3 C           5.4142    0.3155    0.0000 C.3     1  UNL1       -0.0067
      4 C           4.5482    1.8155    0.0000 C.3     1  UNL1       -0.0320
      5 C           6.2802    0.8155    0.0000 C.3     1  UNL1        0.0666
      6 C           5.4142    2.3155    0.0000 C.3     1  UNL1       -0.0468
      7 C           6.2802    1.8155    0.0000 C.3     1  UNL1       -0.0237
      8 C           5.4142   -0.6845    0.0000 C.3     1  UNL1       -0.0434
      9 C           4.0482   -0.0505    0.0000 C.3     1  UNL1       -0.0592
     10 C           3.6822    1.3156    0.0000 C.3     1  UNL1       -0.0592
     11 C           3.6822    2.3155    0.0000 C.3     1  UNL1       -0.0312
     12 C           6.7802   -0.0505    0.0000 C.3     1  UNL1       -0.0358
     13 C           4.4142   -0.6845    0.0000 C.3     1  UNL1       -0.0316
     14 C           2.7071    1.9544    0.0000 C.2     1  UNL1       -0.0847
     15 C           3.7071   -1.3916    0.0000 C.2     1  UNL1       -0.0765
     16 C           2.9659    0.9885    0.0000 C.2     1  UNL1       -0.0762
     17 C           2.2588    0.2814    0.0000 C.3     1  UNL1       -0.0286
     18 C           2.7071   -1.3916    0.0000 C.2     1  UNL1       -0.0847
     19 C           2.0000   -0.6845    0.0000 C.3     1  UNL1       -0.0308
     20 C           4.0898   -2.3155    0.0000 C.3     1  UNL1       -0.0438
     21 C           3.9318    0.7297    0.0000 C.3     1  UNL1       -0.0438
     22 H           5.9512    0.0055    0.0000 H       1  UNL1        0.0334
     23 H           4.5482    2.4355    0.0000 H       1  UNL1        0.0309
     24 H           5.8127    2.7904    0.0000 H       1  UNL1        0.0269
     25 H           5.0157    2.7904    0.0000 H       1  UNL1        0.0269
     26 H           6.8908    1.7078    0.0000 H       1  UNL1        0.0293
     27 H           6.4923    2.3981    0.0000 H       1  UNL1        0.0293
     28 H           5.4142   -1.3045    0.0000 H       1  UNL1        0.0272
     29 H           6.0342   -0.6845    0.0000 H       1  UNL1        0.0272
     30 H           3.5112    0.2595    0.0000 H       1  UNL1        0.0235
     31 H           3.7382   -0.5875    0.0000 H       1  UNL1        0.0235
     32 H           4.5851   -0.3605    0.0000 H       1  UNL1        0.0235
     33 H           3.9923    1.8525    0.0000 H       1  UNL1        0.0235
     34 H           3.1453    1.6256    0.0000 H       1  UNL1        0.0235
     35 H           3.3722    0.7787    0.0000 H       1  UNL1        0.0235
     36 H           4.1068    2.7673    0.0000 H       1  UNL1        0.0310
     37 H           3.3396    2.8322    0.0000 H       1  UNL1        0.0310
     38 H           6.2433   -0.3605    0.0000 H       1  UNL1        0.0257
     39 H           7.0902   -0.5875    0.0000 H       1  UNL1        0.0257
     40 H           7.3172    0.2595    0.0000 H       1  UNL1        0.0257
     41 H           4.5747   -0.0856    0.0000 H       1  UNL1        0.0310
     42 H           3.8773   -0.3745    0.0000 H       1  UNL1        0.0310
     43 H           7.5902    1.3524    0.0000 H       1  UNL1        0.2102
     44 H           2.1504    2.2274    0.0000 H       1  UNL1        0.0572
     45 H           1.9968    0.8433    0.0000 H       1  UNL1        0.0313
     46 H           2.7958   -0.0286    0.0000 H       1  UNL1        0.0313
     47 H           2.4698   -1.9644    0.0000 H       1  UNL1        0.0572
     48 H           1.4381   -0.4225    0.0000 H       1  UNL1        0.0310
     49 H           1.6444   -1.1924    0.0000 H       1  UNL1        0.0310
     50 H           3.5170   -2.5528    0.0000 H       1  UNL1        0.0274
     51 H           4.3270   -2.8883    0.0000 H       1  UNL1        0.0274
     52 H           4.6626   -2.0782    0.0000 H       1  UNL1        0.0274
     53 H           3.7714    0.1308    0.0000 H       1  UNL1        0.0274
     54 H           4.5307    0.5692    0.0000 H       1  UNL1        0.0274
     55 H           4.0923    1.3286    0.0000 H       1  UNL1        0.0274
@<TRIPOS>BOND
     1     1     5    1
     2     1    43    1
     3     2     3    1
     4     2     4    1
     5     2     9    1
     6     2    10    1
     7     3     5    1
     8     3     8    1
     9     3    22    1
    10     4     6    1
    11     4    11    1
    12     4    23    1
    13     5     7    1
    14     5    12    1
    15     6     7    1
    16     6    24    1
    17     6    25    1
    18     7    26    1
    19     7    27    1
    20     8    13    1
    21     8    28    1
    22     8    29    1
    23     9    30    1
    24     9    31    1
    25     9    32    1
    26    10    33    1
    27    10    34    1
    28    10    35    1
    29    11    14    1
    30    11    36    1
    31    11    37    1
    32    12    38    1
    33    12    39    1
    34    12    40    1
    35    13    15    1
    36    13    41    1
    37    13    42    1
    38    14    16    2
    39    14    44    1
    40    15    18    2
    41    15    20    1
    42    16    17    1
    43    16    21    1
    44    17    19    1
    45    17    45    1
    46    17    46    1
    47    18    19    1
    48    18    47    1
    49    19    48    1
    50    19    49    1
    51    20    50    1
    52    20    51    1
    53    20    52    1
    54    21    53    1
    55    21    54    1
    56    21    55    1
