@<TRIPOS>MOLECULE
IMPHY006261
 52 53 0 0 0
SMALL
GASTEIGER

@<TRIPOS>ATOM
      1 O           6.3671    2.4610    0.0000 O.3     1  UNL1       -0.3740
      2 O           6.0010    0.0950    0.0000 O.3     1  UNL1       -0.4432
      3 O           8.3671    0.7290    0.0000 O.3     1  UNL1       -0.4785
      4 O           6.8671   -0.1371    0.0000 O.2     1  UNL1       -0.2476
      5 O           5.1350    2.5950    0.0000 O.3     1  UNL1       -0.4780
      6 O           4.2690    1.0950    0.0000 O.2     1  UNL1       -0.2467
      7 O           6.0010    5.0950    0.0000 O.3     1  UNL1       -0.5033
      8 O           7.7331    6.0950    0.0000 O.3     1  UNL1       -0.5033
      9 O           4.2690    0.0950    0.0000 O.2     1  UNL1       -0.2456
     10 O           4.2690   -5.9050    0.0000 O.3     1  UNL1       -0.4915
     11 O           2.5369   -4.9050    0.0000 O.3     1  UNL1       -0.5033
     12 C           6.8671    1.5950    0.0000 C.3     1  UNL1        0.2137
     13 C           7.7331    2.0950    0.0000 C.3     1  UNL1        0.0161
     14 C           6.0010    1.0950    0.0000 C.3     1  UNL1        0.2379
     15 C           7.7331    3.0950    0.0000 C.ar    1  UNL1       -0.0403
     16 C           7.3671    0.7290    0.0000 C.2     1  UNL1        0.3415
     17 C           5.1350    1.5950    0.0000 C.2     1  UNL1        0.3495
     18 C           6.8671    3.5950    0.0000 C.ar    1  UNL1       -0.0132
     19 C           8.5991    3.5950    0.0000 C.ar    1  UNL1       -0.0548
     20 C           6.8671    4.5950    0.0000 C.ar    1  UNL1        0.1585
     21 C           8.5991    4.5950    0.0000 C.ar    1  UNL1       -0.0163
     22 C           7.7331    5.0950    0.0000 C.ar    1  UNL1        0.1582
     23 C           5.1350   -0.4050    0.0000 C.2     1  UNL1        0.3328
     24 C           5.1350   -1.4050    0.0000 C.2     1  UNL1        0.0231
     25 C           4.2690   -1.9050    0.0000 C.2     1  UNL1       -0.0477
     26 C           4.2690   -2.9050    0.0000 C.ar    1  UNL1       -0.0211
     27 C           3.4030   -3.4050    0.0000 C.ar    1  UNL1       -0.0094
     28 C           5.1350   -3.4050    0.0000 C.ar    1  UNL1       -0.0509
     29 C           3.4030   -4.4050    0.0000 C.ar    1  UNL1        0.1590
     30 C           4.2690   -4.9050    0.0000 C.ar    1  UNL1        0.1613
     31 C           5.1350   -4.4050    0.0000 C.ar    1  UNL1       -0.0158
     32 C           5.1350   -6.4050    0.0000 C.3     1  UNL1        0.0790
     33 H           7.9451    1.5124    0.0000 H       1  UNL1        0.0348
     34 H           8.3437    2.2027    0.0000 H       1  UNL1        0.0348
     35 H           6.5380    0.7850    0.0000 H       1  UNL1        0.0889
     36 H           5.7471    2.4610    0.0000 H       1  UNL1        0.2110
     37 H           6.3301    3.2850    0.0000 H       1  UNL1        0.0658
     38 H           9.1360    3.2850    0.0000 H       1  UNL1        0.0621
     39 H           9.1360    4.9050    0.0000 H       1  UNL1        0.0655
     40 H           8.6771    0.1920    0.0000 H       1  UNL1        0.2951
     41 H           4.5981    2.9050    0.0000 H       1  UNL1        0.2952
     42 H           5.6720   -1.7150    0.0000 H       1  UNL1        0.0689
     43 H           6.0010    5.7150    0.0000 H       1  UNL1        0.2923
     44 H           3.7320   -1.5950    0.0000 H       1  UNL1        0.0626
     45 H           8.2700    6.4050    0.0000 H       1  UNL1        0.2923
     46 H           2.8660   -3.0950    0.0000 H       1  UNL1        0.0661
     47 H           5.6720   -3.0950    0.0000 H       1  UNL1        0.0625
     48 H           5.6720   -4.7150    0.0000 H       1  UNL1        0.0655
     49 H           2.0000   -4.5950    0.0000 H       1  UNL1        0.2923
     50 H           4.8250   -6.9419    0.0000 H       1  UNL1        0.0660
     51 H           5.6720   -6.7150    0.0000 H       1  UNL1        0.0660
     52 H           5.4450   -5.8681    0.0000 H       1  UNL1        0.0660
@<TRIPOS>BOND
     1    12     1    1
     2     1    36    1
     3    14     2    1
     4     2    23    1
     5     3    16    1
     6     3    40    1
     7     4    16    2
     8     5    17    1
     9     5    41    1
    10     6    17    2
    11     7    20    1
    12     7    43    1
    13     8    22    1
    14     8    45    1
    15     9    23    2
    16    10    30    1
    17    10    32    1
    18    11    29    1
    19    11    49    1
    20    12    13    1
    21    12    14    1
    22    12    16    1
    23    13    15    1
    24    13    33    1
    25    13    34    1
    26    14    17    1
    27    14    35    1
    28    15    18   ar
    29    15    19   ar
    30    18    20   ar
    31    18    37    1
    32    19    21   ar
    33    19    38    1
    34    20    22   ar
    35    21    22   ar
    36    21    39    1
    37    23    24    1
    38    24    25    2
    39    24    42    1
    40    25    26    1
    41    25    44    1
    42    26    27   ar
    43    26    28   ar
    44    27    29   ar
    45    27    46    1
    46    28    31   ar
    47    28    47    1
    48    29    30   ar
    49    30    31   ar
    50    31    48    1
    51    32    50    1
    52    32    51    1
    53    32    52    1
