@<TRIPOS>MOLECULE
IMPHY001042
 43 45 0 0 0
SMALL
GASTEIGER

@<TRIPOS>ATOM
      1 O           3.6951    0.9180    0.0000 O.3     1  UNL1       -0.3639
      2 O           2.8681    2.8329    0.0000 O.3     1  UNL1       -0.3889
      3 C           3.8019   -0.2587    0.0000 C.3     1  UNL1        0.0789
      4 C           2.9010    0.1752    0.0000 C.3     1  UNL1       -0.0003
      5 C           3.6659   -1.2435    0.0000 C.3     1  UNL1       -0.0090
      6 C           4.3019    1.9319    0.0000 C.3     1  UNL1        0.0933
      7 C           4.7029    0.1752    0.0000 C.3     1  UNL1       -0.0203
      8 C           2.2159   -0.5451    0.0000 C.3     1  UNL1       -0.0446
      9 C           2.6785    1.1501    0.0000 C.3     1  UNL1       -0.0161
     10 C           2.6877   -1.4201    0.0000 C.3     1  UNL1       -0.0468
     11 C           4.9254    1.1501    0.0000 C.3     1  UNL1       -0.0189
     12 C           3.3019    1.9319    0.0000 C.3     1  UNL1        0.0845
     13 C           4.3875   -1.9358    0.0000 C.3     1  UNL1       -0.0413
     14 C           2.0000    0.6090    0.0000 C.3     1  UNL1       -0.0568
     15 C           4.5245    2.9068    0.0000 C.3     1  UNL1       -0.0334
     16 C           4.1488   -2.9068    0.0000 C.3     1  UNL1       -0.0623
     17 C           5.3479   -1.6570    0.0000 C.3     1  UNL1       -0.0623
     18 H           3.4869   -1.8370    0.0000 H       1  UNL1        0.0331
     19 H           4.8409   -0.4293    0.0000 H       1  UNL1        0.0294
     20 H           5.3229    0.1752    0.0000 H       1  UNL1        0.0294
     21 H           1.8140   -0.0730    0.0000 H       1  UNL1        0.0272
     22 H           1.7041   -0.8951    0.0000 H       1  UNL1        0.0272
     23 H           2.2919    1.6348    0.0000 H       1  UNL1        0.0297
     24 H           2.1198    0.8811    0.0000 H       1  UNL1        0.0297
     25 H           2.1141   -1.6554    0.0000 H       1  UNL1        0.0269
     26 H           2.8614   -2.0153    0.0000 H       1  UNL1        0.0269
     27 H           5.4840    0.8811    0.0000 H       1  UNL1        0.0295
     28 H           5.3120    1.6348    0.0000 H       1  UNL1        0.0295
     29 H           3.6318    2.4569    0.0000 H       1  UNL1        0.0622
     30 H           4.8349   -2.3650    0.0000 H       1  UNL1        0.0299
     31 H           2.2690    1.1676    0.0000 H       1  UNL1        0.0236
     32 H           1.4414    0.8781    0.0000 H       1  UNL1        0.0236
     33 H           1.7310    0.0504    0.0000 H       1  UNL1        0.0236
     34 H           5.1289    2.7689    0.0000 H       1  UNL1        0.0258
     35 H           4.6624    3.5113    0.0000 H       1  UNL1        0.0258
     36 H           3.9200    3.0448    0.0000 H       1  UNL1        0.0258
     37 H           3.5467   -2.7588    0.0000 H       1  UNL1        0.0232
     38 H           4.0008   -3.5089    0.0000 H       1  UNL1        0.0232
     39 H           4.7508   -3.0549    0.0000 H       1  UNL1        0.0232
     40 H           5.5207   -2.2524    0.0000 H       1  UNL1        0.0232
     41 H           5.9433   -1.4842    0.0000 H       1  UNL1        0.0232
     42 H           5.1751   -1.0616    0.0000 H       1  UNL1        0.0232
     43 H           2.2498    2.8792    0.0000 H       1  UNL1        0.2099
@<TRIPOS>BOND
     1     3     1    1
     2     1     6    1
     3    12     2    1
     4     2    43    1
     5     3     4    1
     6     3     5    1
     7     3     7    1
     8     4     8    1
     9     4     9    1
    10     4    14    1
    11     5    10    1
    12     5    13    1
    13     5    18    1
    14     6    11    1
    15     6    12    1
    16     6    15    1
    17     7    11    1
    18     7    19    1
    19     7    20    1
    20     8    10    1
    21     8    21    1
    22     8    22    1
    23     9    12    1
    24     9    23    1
    25     9    24    1
    26    10    25    1
    27    10    26    1
    28    11    27    1
    29    11    28    1
    30    12    29    1
    31    13    16    1
    32    13    17    1
    33    13    30    1
    34    14    31    1
    35    14    32    1
    36    14    33    1
    37    15    34    1
    38    15    35    1
    39    15    36    1
    40    16    37    1
    41    16    38    1
    42    16    39    1
    43    17    40    1
    44    17    41    1
    45    17    42    1
