@<TRIPOS>MOLECULE
IMPHY002492
 79 88 0 0 0
SMALL
GASTEIGER

@<TRIPOS>ATOM
      1 O           5.0393    1.2485    0.0000 O.3     1  UNL1       -0.4814
      2 O           5.4026    0.2264    0.0000 O.2     1  UNL1       -0.2895
      3 O           2.8680    2.1683    0.0000 O.3     1  UNL1       -0.4914
      4 O           8.0935   -2.5103    0.0000 O.3     1  UNL1       -0.4473
      5 O           9.6628   -3.3209    0.0000 O.3     1  UNL1       -0.4914
      6 O           7.1456   -4.1194    0.0000 O.3     1  UNL1       -0.5009
      7 O           5.1175   -4.1460    0.0000 O.3     1  UNL1       -0.4913
      8 N           7.9480    0.6918    0.0000 N.pl3   1  UNL1       -0.3126
      9 N           6.8422    3.6833    0.0000 N.3     1  UNL1       -0.3018
     10 C           6.3981    2.1924    0.0000 C.3     1  UNL1        0.0444
     11 C           7.2641    2.6924    0.0000 C.3     1  UNL1       -0.0093
     12 C           6.0330    1.2681    0.0000 C.3     1  UNL1        0.1387
     13 C           7.0012    1.0137    0.0000 C.3     1  UNL1        0.1359
     14 C           7.6559    1.7711    0.0000 C.3     1  UNL1       -0.0154
     15 C           7.2641    3.6924    0.0000 C.3     1  UNL1        0.0179
     16 C           6.1950    2.5623    0.0000 C.3     1  UNL1       -0.0266
     17 C           5.5320    2.6924    0.0000 C.ar    1  UNL1        0.0113
     18 C           6.3981    4.1924    0.0000 C.3     1  UNL1       -0.0113
     19 C           6.1114    3.3580    0.0000 C.3     1  UNL1       -0.0002
     20 C           5.5320    3.6924    0.0000 C.ar    1  UNL1       -0.0383
     21 C           4.6381    2.1578    0.0000 C.ar    1  UNL1        0.1665
     22 C           6.4025    0.2128    0.0000 C.2     1  UNL1        0.1926
     23 C           7.9344   -0.3081    0.0000 C.2     1  UNL1        0.0531
     24 C           6.9792   -0.6042    0.0000 C.2     1  UNL1        0.0522
     25 C           8.8331    1.1228    0.0000 C.3     1  UNL1        0.0173
     26 C           7.0501    4.6615    0.0000 C.3     1  UNL1       -0.0125
     27 C           4.6381    4.2271    0.0000 C.ar    1  UNL1       -0.0546
     28 C           3.7320    2.6716    0.0000 C.ar    1  UNL1        0.1618
     29 C           8.7418   -0.8649    0.0000 C.ar    1  UNL1        0.0459
     30 C           9.6556    0.5818    0.0000 C.3     1  UNL1       -0.0111
     31 C           3.7320    3.7132    0.0000 C.ar    1  UNL1       -0.0160
     32 C           6.6283   -1.5200    0.0000 C.ar    1  UNL1        0.0335
     33 C           9.6104   -0.4016    0.0000 C.ar    1  UNL1       -0.0332
     34 C           8.8125   -1.8432    0.0000 C.ar    1  UNL1        0.1791
     35 C           7.1233   -2.3668    0.0000 C.ar    1  UNL1        0.1813
     36 C          10.4612   -0.8598    0.0000 C.ar    1  UNL1       -0.0542
     37 C           5.6067   -1.5098    0.0000 C.ar    1  UNL1       -0.0466
     38 C           9.6525   -2.3209    0.0000 C.ar    1  UNL1        0.1628
     39 C          10.4824   -1.8259    0.0000 C.ar    1  UNL1       -0.0160
     40 C           6.6310   -3.2620    0.0000 C.ar    1  UNL1        0.2023
     41 C           2.0000    2.6649    0.0000 C.3     1  UNL1        0.0790
     42 C           5.0939   -2.3934    0.0000 C.ar    1  UNL1       -0.0155
     43 C           5.6095   -3.2753    0.0000 C.ar    1  UNL1        0.1650
     44 C          10.5339   -3.8119    0.0000 C.3     1  UNL1        0.0790
     45 C           4.1176   -4.1552    0.0000 C.3     1  UNL1        0.0790
     46 H           8.0002    2.2674    0.0000 H       1  UNL1        0.0326
     47 H           5.9324    0.4241    0.0000 H       1  UNL1        0.0768
     48 H           8.0582    1.2994    0.0000 H       1  UNL1        0.0295
     49 H           8.1832    2.0974    0.0000 H       1  UNL1        0.0295
     50 H           7.6891    4.4285    0.0000 H       1  UNL1        0.0469
     51 H           5.6002    2.7375    0.0000 H       1  UNL1        0.0287
     52 H           6.7867    2.7476    0.0000 H       1  UNL1        0.0287
     53 H           6.7966    4.6674    0.0000 H       1  UNL1        0.0329
     54 H           5.9995    4.6674    0.0000 H       1  UNL1        0.0329
     55 H           5.9198    3.9476    0.0000 H       1  UNL1        0.0427
     56 H           5.5049    3.2290    0.0000 H       1  UNL1        0.0427
     57 H           9.2604    1.5720    0.0000 H       1  UNL1        0.0467
     58 H           8.4670    1.6231    0.0000 H       1  UNL1        0.0467
     59 H           4.6453    4.8470    0.0000 H       1  UNL1        0.0622
     60 H           7.6566    4.5326    0.0000 H       1  UNL1        0.0391
     61 H           7.1790    5.2679    0.0000 H       1  UNL1        0.0391
     62 H           6.4436    4.7904    0.0000 H       1  UNL1        0.0391
     63 H          10.2601    0.4437    0.0000 H       1  UNL1        0.0329
     64 H           9.8989    1.1521    0.0000 H       1  UNL1        0.0329
     65 H           3.1963    4.0253    0.0000 H       1  UNL1        0.0655
     66 H          10.9900   -0.5361    0.0000 H       1  UNL1        0.0622
     67 H           5.3001   -0.9710    0.0000 H       1  UNL1        0.0626
     68 H          11.0248   -2.1262    0.0000 H       1  UNL1        0.0655
     69 H           2.3079    3.2030    0.0000 H       1  UNL1        0.0660
     70 H           1.4619    2.9728    0.0000 H       1  UNL1        0.0660
     71 H           1.6921    2.1268    0.0000 H       1  UNL1        0.0660
     72 H           4.4739   -2.3943    0.0000 H       1  UNL1        0.0655
     73 H           6.8448   -4.6615    0.0000 H       1  UNL1        0.2924
     74 H          10.2295   -4.3520    0.0000 H       1  UNL1        0.0660
     75 H          11.0741   -4.1163    0.0000 H       1  UNL1        0.0660
     76 H          10.8384   -3.2718    0.0000 H       1  UNL1        0.0660
     77 H           4.1118   -3.5352    0.0000 H       1  UNL1        0.0660
     78 H           3.4976   -4.1610    0.0000 H       1  UNL1        0.0660
     79 H           4.1233   -4.7752    0.0000 H       1  UNL1        0.0660
@<TRIPOS>BOND
     1     1    12    1
     2     1    21    1
     3     2    22    2
     4     3    28    1
     5     3    41    1
     6     4    34    1
     7     4    35    1
     8     5    38    1
     9     5    44    1
    10     6    40    1
    11     6    73    1
    12     7    43    1
    13     7    45    1
    14     8    13    1
    15     8    23    1
    16     8    25    1
    17     9    15    1
    18     9    19    1
    19     9    26    1
    20    10    11    1
    21    10    12    1
    22    10    16    1
    23    10    17    1
    24    11    14    1
    25    11    15    1
    26    11    46    1
    27    12    13    1
    28    12    47    1
    29    13    14    1
    30    13    22    1
    31    14    48    1
    32    14    49    1
    33    15    18    1
    34    15    50    1
    35    16    19    1
    36    16    51    1
    37    16    52    1
    38    17    20   ar
    39    17    21   ar
    40    18    20    1
    41    18    53    1
    42    18    54    1
    43    19    55    1
    44    19    56    1
    45    20    27   ar
    46    21    28   ar
    47    22    24    1
    48    23    24    2
    49    23    29    1
    50    24    32    1
    51    25    30    1
    52    25    57    1
    53    25    58    1
    54    26    60    1
    55    26    61    1
    56    26    62    1
    57    27    31   ar
    58    27    59    1
    59    28    31   ar
    60    29    33   ar
    61    29    34   ar
    62    30    33    1
    63    30    63    1
    64    30    64    1
    65    31    65    1
    66    32    35   ar
    67    32    37   ar
    68    33    36   ar
    69    34    38   ar
    70    35    40   ar
    71    36    39   ar
    72    36    66    1
    73    37    42   ar
    74    37    67    1
    75    38    39   ar
    76    39    68    1
    77    40    43   ar
    78    41    69    1
    79    41    70    1
    80    41    71    1
    81    42    43   ar
    82    42    72    1
    83    44    74    1
    84    44    75    1
    85    44    76    1
    86    45    77    1
    87    45    78    1
    88    45    79    1
