@<TRIPOS>MOLECULE
IMPHY007673
 32 34 0 0 0
SMALL
GASTEIGER

@<TRIPOS>ATOM
      1 O           6.4144    1.7623    0.0000 O.3     1  UNL1       -0.4940
      2 O           8.1962   -1.2964    0.0000 O.3     1  UNL1       -0.5064
      3 O           4.6660    1.7277    0.0000 O.2     1  UNL1       -0.2865
      4 O           4.6660   -2.2723    0.0000 O.2     1  UNL1       -0.2866
      5 C           5.5321    0.2277    0.0000 C.ar    1  UNL1        0.0751
      6 C           5.5321   -0.7723    0.0000 C.ar    1  UNL1        0.0401
      7 C           3.8000    0.2277    0.0000 C.ar    1  UNL1        0.0332
      8 C           6.4260    0.7624    0.0000 C.ar    1  UNL1        0.1379
      9 C           3.8000   -0.7723    0.0000 C.ar    1  UNL1        0.0331
     10 C           4.6660    0.7277    0.0000 C.2     1  UNL1        0.1980
     11 C           4.6660   -1.2723    0.0000 C.2     1  UNL1        0.1947
     12 C           7.3321    0.2485    0.0000 C.ar    1  UNL1        0.0333
     13 C           6.4260   -1.3070    0.0000 C.ar    1  UNL1       -0.0082
     14 C           7.3321   -0.7931    0.0000 C.ar    1  UNL1        0.1239
     15 C           2.9061    0.7624    0.0000 C.ar    1  UNL1       -0.0502
     16 C           2.9061   -1.3070    0.0000 C.ar    1  UNL1       -0.0502
     17 C           8.1962    0.7519    0.0000 C.3     1  UNL1       -0.0327
     18 C           2.0000    0.2485    0.0000 C.ar    1  UNL1       -0.0610
     19 C           2.0000   -0.7931    0.0000 C.ar    1  UNL1       -0.0610
     20 C           7.2746    2.2723    0.0000 C.3     1  UNL1        0.0788
     21 H           6.4188   -1.9269    0.0000 H       1  UNL1        0.0661
     22 H           2.9132    1.3823    0.0000 H       1  UNL1        0.0625
     23 H           2.9132   -1.9269    0.0000 H       1  UNL1        0.0625
     24 H           8.5082    0.2161    0.0000 H       1  UNL1        0.0280
     25 H           8.7319    1.0639    0.0000 H       1  UNL1        0.0280
     26 H           7.8841    1.2876    0.0000 H       1  UNL1        0.0280
     27 H           1.4643    0.5606    0.0000 H       1  UNL1        0.0618
     28 H           1.4643   -1.1052    0.0000 H       1  UNL1        0.0618
     29 H           8.1938   -1.9164    0.0000 H       1  UNL1        0.2921
     30 H           7.5908    1.7390    0.0000 H       1  UNL1        0.0660
     31 H           7.8079    2.5885    0.0000 H       1  UNL1        0.0660
     32 H           6.9584    2.8056    0.0000 H       1  UNL1        0.0660
@<TRIPOS>BOND
     1     1     8    1
     2     1    20    1
     3     2    14    1
     4     2    29    1
     5     3    10    2
     6     4    11    2
     7     5     6   ar
     8     5     8   ar
     9     5    10    1
    10     6    11    1
    11     6    13   ar
    12     7     9   ar
    13     7    10    1
    14     7    15   ar
    15     8    12   ar
    16     9    11    1
    17     9    16   ar
    18    12    14   ar
    19    12    17    1
    20    13    14   ar
    21    13    21    1
    22    15    18   ar
    23    15    22    1
    24    16    19   ar
    25    16    23    1
    26    17    24    1
    27    17    25    1
    28    17    26    1
    29    18    19   ar
    30    18    27    1
    31    19    28    1
    32    20    30    1
    33    20    31    1
    34    20    32    1
