@<TRIPOS>MOLECULE
IMPHY009711
 20 19 0 0 0
SMALL
GASTEIGER

@<TRIPOS>ATOM
      1 O           2.0000    0.6900    0.0000 O.2     1  UNL1       -0.3010
      2 C           4.5981    0.1900    0.0000 C.3     1  UNL1       -0.0284
      3 C           3.7320    0.6900    0.0000 C.3     1  UNL1        0.0062
      4 C           5.4641    0.6900    0.0000 C.2     1  UNL1       -0.0876
      5 C           6.3301   -0.8100    0.0000 C.3     1  UNL1       -0.0376
      6 C           6.3301    0.1900    0.0000 C.2     1  UNL1       -0.0882
      7 C           7.1962   -1.3100    0.0000 C.3     1  UNL1       -0.0618
      8 C           2.8660    0.1900    0.0000 C.2     1  UNL1        0.1206
      9 H           4.1996   -0.2849    0.0000 H       1  UNL1        0.0311
     10 H           4.9966   -0.2849    0.0000 H       1  UNL1        0.0311
     11 H           4.1306    1.1650    0.0000 H       1  UNL1        0.0342
     12 H           3.3335    1.1650    0.0000 H       1  UNL1        0.0342
     13 H           5.4641    1.3100    0.0000 H       1  UNL1        0.0569
     14 H           5.7196   -0.7023    0.0000 H       1  UNL1        0.0305
     15 H           6.1181   -1.3926    0.0000 H       1  UNL1        0.0305
     16 H           6.8671    0.5000    0.0000 H       1  UNL1        0.0569
     17 H           6.8862   -1.8469    0.0000 H       1  UNL1        0.0233
     18 H           7.7331   -1.6200    0.0000 H       1  UNL1        0.0233
     19 H           7.5062   -0.7731    0.0000 H       1  UNL1        0.0233
     20 H           2.8660   -0.4300    0.0000 H       1  UNL1        0.1026
@<TRIPOS>BOND
     1     1     8    2
     2     2     3    1
     3     2     4    1
     4     2     9    1
     5     2    10    1
     6     3     8    1
     7     3    11    1
     8     3    12    1
     9     4     6    2
    10     4    13    1
    11     5     6    1
    12     5     7    1
    13     5    14    1
    14     5    15    1
    15     6    16    1
    16     7    17    1
    17     7    18    1
    18     7    19    1
    19     8    20    1
