@<TRIPOS>MOLECULE
IMPHY007300
 55 58 0 0 0
SMALL
GASTEIGER

@<TRIPOS>ATOM
      1 O           2.5357   -2.5030    0.0000 O.3     1  UNL1       -0.3915
      2 O           8.5179    2.5489    0.0000 O.2     1  UNL1       -0.2974
      3 C           7.9288    0.5493    0.0000 C.3     1  UNL1       -0.0195
      4 C           7.9288   -0.4507    0.0000 C.3     1  UNL1       -0.0316
      5 C           7.0628   -0.9507    0.0000 C.3     1  UNL1       -0.0306
      6 C           6.1968   -0.4507    0.0000 C.3     1  UNL1       -0.0285
      7 C           5.2868   -0.9575    0.0000 C.3     1  UNL1       -0.0078
      8 C           7.0628    1.0493    0.0000 C.3     1  UNL1       -0.0464
      9 C           8.8750    0.8540    0.0000 C.3     1  UNL1        0.0229
     10 C           6.1968    0.5493    0.0000 C.3     1  UNL1       -0.0486
     11 C           8.8750   -0.7554    0.0000 C.3     1  UNL1       -0.0488
     12 C           9.4586    0.0493    0.0000 C.3     1  UNL1       -0.0427
     13 C           7.0789   -1.9922    0.0000 C.3     1  UNL1       -0.0311
     14 C           5.2787   -1.9991    0.0000 C.2     1  UNL1       -0.0648
     15 C           7.9288    1.5493    0.0000 C.3     1  UNL1       -0.0587
     16 C           4.3599   -0.3935    0.0000 C.3     1  UNL1       -0.0413
     17 C           6.1808   -2.5200    0.0000 C.2     1  UNL1       -0.0839
     18 C           5.2945    0.0424    0.0000 C.3     1  UNL1       -0.0556
     19 C           4.3433   -2.5489    0.0000 C.3     1  UNL1       -0.0051
     20 C           3.4120   -0.9214    0.0000 C.3     1  UNL1       -0.0258
     21 C           9.1857    1.8046    0.0000 C.2     1  UNL1        0.1339
     22 C           3.4037   -2.0064    0.0000 C.3     1  UNL1        0.0590
     23 C          10.1642    2.0108    0.0000 C.3     1  UNL1       -0.0058
     24 H           8.0188   -1.2959    0.0000 H       1  UNL1        0.0309
     25 H           7.8022   -1.3700    0.0000 H       1  UNL1        0.0309
     26 H           6.9329   -0.0257    0.0000 H       1  UNL1        0.0312
     27 H           7.4613    1.5243    0.0000 H       1  UNL1        0.0271
     28 H           6.6643    1.5243    0.0000 H       1  UNL1        0.0271
     29 H           9.4875    0.9502    0.0000 H       1  UNL1        0.0383
     30 H           5.9847    1.1319    0.0000 H       1  UNL1        0.0268
     31 H           5.5862    0.4416    0.0000 H       1  UNL1        0.0268
     32 H           8.6240   -1.3223    0.0000 H       1  UNL1        0.0268
     33 H           9.4124   -1.0647    0.0000 H       1  UNL1        0.0268
     34 H           9.9195   -0.3654    0.0000 H       1  UNL1        0.0272
     35 H           9.9195    0.4640    0.0000 H       1  UNL1        0.0272
     36 H           7.2969   -2.5726    0.0000 H       1  UNL1        0.0310
     37 H           7.6880   -1.8767    0.0000 H       1  UNL1        0.0310
     38 H           8.5488    1.5493    0.0000 H       1  UNL1        0.0235
     39 H           7.9288    2.1693    0.0000 H       1  UNL1        0.0235
     40 H           7.3088    1.5493    0.0000 H       1  UNL1        0.0235
     41 H           4.7681    0.0732    0.0000 H       1  UNL1        0.0274
     42 H           3.9700    0.0886    0.0000 H       1  UNL1        0.0274
     43 H           6.1832   -3.1399    0.0000 H       1  UNL1        0.0572
     44 H           5.9145    0.0377    0.0000 H       1  UNL1        0.0238
     45 H           5.2993    0.6624    0.0000 H       1  UNL1        0.0238
     46 H           4.6745    0.0472    0.0000 H       1  UNL1        0.0238
     47 H           3.9460   -3.0248    0.0000 H       1  UNL1        0.0335
     48 H           4.7443   -3.0218    0.0000 H       1  UNL1        0.0335
     49 H           3.2075   -0.3361    0.0000 H       1  UNL1        0.0290
     50 H           2.8004   -1.0228    0.0000 H       1  UNL1        0.0290
     51 H           3.4025   -2.6264    0.0000 H       1  UNL1        0.0596
     52 H          10.2921    1.4041    0.0000 H       1  UNL1        0.0306
     53 H          10.7709    2.1386    0.0000 H       1  UNL1        0.0306
     54 H          10.0364    2.6174    0.0000 H       1  UNL1        0.0306
     55 H           2.0000   -2.1910    0.0000 H       1  UNL1        0.2098
@<TRIPOS>BOND
     1    22     1    1
     2     1    55    1
     3     2    21    2
     4     3     4    1
     5     3     8    1
     6     3     9    1
     7     3    15    1
     8     4     5    1
     9     4    11    1
    10     4    24    1
    11     5     6    1
    12     5    13    1
    13     5    25    1
    14     6     7    1
    15     6    10    1
    16     6    26    1
    17     7    14    1
    18     7    16    1
    19     7    18    1
    20     8    10    1
    21     8    27    1
    22     8    28    1
    23     9    12    1
    24     9    21    1
    25     9    29    1
    26    10    30    1
    27    10    31    1
    28    11    12    1
    29    11    32    1
    30    11    33    1
    31    12    34    1
    32    12    35    1
    33    13    17    1
    34    13    36    1
    35    13    37    1
    36    14    17    2
    37    14    19    1
    38    15    38    1
    39    15    39    1
    40    15    40    1
    41    16    20    1
    42    16    41    1
    43    16    42    1
    44    17    43    1
    45    18    44    1
    46    18    45    1
    47    18    46    1
    48    19    22    1
    49    19    47    1
    50    19    48    1
    51    20    22    1
    52    20    49    1
    53    20    50    1
    54    21    23    1
    55    22    51    1
    56    23    52    1
    57    23    53    1
    58    23    54    1
