@<TRIPOS>MOLECULE
IMPHY001603
 33 34 0 0 0
SMALL
GASTEIGER

@<TRIPOS>ATOM
      1 O           8.1240    1.2552    0.0000 O.2     1  UNL1       -0.2917
      2 O           2.5369    0.5000    0.0000 O.3     1  UNL1       -0.4804
      3 O           3.4030   -1.0000    0.0000 O.2     1  UNL1       -0.2507
      4 C           8.3969   -0.5000    0.0000 C.3     1  UNL1        0.0233
      5 C           7.8133   -1.3047    0.0000 C.3     1  UNL1       -0.0174
      6 C           6.8671   -1.0000    0.0000 C.ar    1  UNL1       -0.0357
      7 C           6.8671    0.0000    0.0000 C.ar    1  UNL1        0.0241
      8 C           7.8133    0.3047    0.0000 C.2     1  UNL1        0.1668
      9 C           6.0010    0.5000    0.0000 C.ar    1  UNL1       -0.0358
     10 C           5.1350    0.0000    0.0000 C.ar    1  UNL1       -0.0303
     11 C           6.0010   -1.5000    0.0000 C.ar    1  UNL1       -0.0547
     12 C           5.1350   -1.0000    0.0000 C.ar    1  UNL1       -0.0462
     13 C           9.3969   -0.5000    0.0000 C.3     1  UNL1       -0.0551
     14 C           4.2690    0.5000    0.0000 C.3     1  UNL1        0.0704
     15 C           6.0010    1.5000    0.0000 C.3     1  UNL1       -0.0388
     16 C           4.2690   -1.5000    0.0000 C.3     1  UNL1       -0.0394
     17 C           3.4030    0.0000    0.0000 C.2     1  UNL1        0.3091
     18 H           8.6786   -1.0523    0.0000 H       1  UNL1        0.0381
     19 H           7.5622   -1.8716    0.0000 H       1  UNL1        0.0320
     20 H           8.3507   -1.6140    0.0000 H       1  UNL1        0.0320
     21 H           6.0010   -2.1200    0.0000 H       1  UNL1        0.0623
     22 H           9.3969   -1.1200    0.0000 H       1  UNL1        0.0237
     23 H          10.0169   -0.5000    0.0000 H       1  UNL1        0.0237
     24 H           9.3969    0.1200    0.0000 H       1  UNL1        0.0237
     25 H           4.6675    0.9749    0.0000 H       1  UNL1        0.0426
     26 H           3.8705    0.9749    0.0000 H       1  UNL1        0.0426
     27 H           6.6210    1.5000    0.0000 H       1  UNL1        0.0278
     28 H           6.0010    2.1200    0.0000 H       1  UNL1        0.0278
     29 H           5.3810    1.5000    0.0000 H       1  UNL1        0.0278
     30 H           3.9590   -0.9631    0.0000 H       1  UNL1        0.0278
     31 H           3.7320   -1.8100    0.0000 H       1  UNL1        0.0278
     32 H           4.5790   -2.0369    0.0000 H       1  UNL1        0.0278
     33 H           2.0000    0.1900    0.0000 H       1  UNL1        0.2951
@<TRIPOS>BOND
     1     1     8    2
     2     2    17    1
     3     2    33    1
     4     3    17    2
     5     4     5    1
     6     4     8    1
     7     4    13    1
     8     4    18    1
     9     5     6    1
    10     5    19    1
    11     5    20    1
    12     6     7   ar
    13     6    11   ar
    14     7     8    1
    15     7     9   ar
    16     9    10   ar
    17     9    15    1
    18    10    12   ar
    19    10    14    1
    20    11    12   ar
    21    11    21    1
    22    12    16    1
    23    13    22    1
    24    13    23    1
    25    13    24    1
    26    14    17    1
    27    14    25    1
    28    14    26    1
    29    15    27    1
    30    15    28    1
    31    15    29    1
    32    16    30    1
    33    16    31    1
    34    16    32    1
