@<TRIPOS>MOLECULE
IMPHY014765
 27 28 0 0 0
SMALL
GASTEIGER

@<TRIPOS>ATOM
      1 O           7.1962   -0.2500    0.0000 O.3     1  UNL1       -0.4538
      2 O           8.9282   -0.2500    0.0000 O.2     1  UNL1       -0.2456
      3 C           6.3301    0.2500    0.0000 C.3     1  UNL1        0.1253
      4 C           6.3301    1.2500    0.0000 C.3     1  UNL1        0.0068
      5 C           5.4641   -0.2500    0.0000 C.2     1  UNL1       -0.0431
      6 C           7.1962    1.7500    0.0000 C.2     1  UNL1       -0.0735
      7 C           4.5981    0.2500    0.0000 C.2     1  UNL1       -0.0551
      8 C           3.7320   -0.2500    0.0000 C.ar    1  UNL1       -0.0252
      9 C           8.0622    1.2500    0.0000 C.2     1  UNL1        0.0187
     10 C           8.0622    0.2500    0.0000 C.2     1  UNL1        0.3322
     11 C           2.8660    0.2500    0.0000 C.ar    1  UNL1       -0.0546
     12 C           3.7320   -1.2500    0.0000 C.ar    1  UNL1       -0.0546
     13 C           2.0000   -0.2500    0.0000 C.ar    1  UNL1       -0.0612
     14 C           2.8660   -1.7500    0.0000 C.ar    1  UNL1       -0.0612
     15 C           2.0000   -1.2500    0.0000 C.ar    1  UNL1       -0.0617
     16 H           6.3301   -0.3700    0.0000 H       1  UNL1        0.0782
     17 H           6.1181    1.8326    0.0000 H       1  UNL1        0.0346
     18 H           5.7196    1.1423    0.0000 H       1  UNL1        0.0346
     19 H           5.4641   -0.8700    0.0000 H       1  UNL1        0.0609
     20 H           7.1962    2.3700    0.0000 H       1  UNL1        0.0575
     21 H           4.5981    0.8700    0.0000 H       1  UNL1        0.0621
     22 H           8.5991    1.5600    0.0000 H       1  UNL1        0.0686
     23 H           2.8660    0.8700    0.0000 H       1  UNL1        0.0623
     24 H           4.2690   -1.5600    0.0000 H       1  UNL1        0.0623
     25 H           1.4631    0.0600    0.0000 H       1  UNL1        0.0618
     26 H           2.8660   -2.3700    0.0000 H       1  UNL1        0.0618
     27 H           1.4631   -1.5600    0.0000 H       1  UNL1        0.0618
@<TRIPOS>BOND
     1     1     3    1
     2     1    10    1
     3     2    10    2
     4     3     4    1
     5     3     5    1
     6     3    16    1
     7     4     6    1
     8     4    17    1
     9     4    18    1
    10     5     7    2
    11     5    19    1
    12     6     9    2
    13     6    20    1
    14     7     8    1
    15     7    21    1
    16     8    11   ar
    17     8    12   ar
    18     9    10    1
    19     9    22    1
    20    11    13   ar
    21    11    23    1
    22    12    14   ar
    23    12    24    1
    24    13    15   ar
    25    13    25    1
    26    14    15   ar
    27    14    26    1
    28    15    27    1
