@<TRIPOS>MOLECULE
IMPHY014434
 33 35 0 0 0
SMALL
GASTEIGER

@<TRIPOS>ATOM
      1 O           6.0682   -1.0969    0.0000 O.2     1  UNL1       -0.4506
      2 O           7.8167    1.9377    0.0000 O.3     1  UNL1       -0.4942
      3 O           9.5984   -1.1211    0.0000 O.3     1  UNL1       -0.4949
      4 O           6.0682    1.9031    0.0000 O.2     1  UNL1       -0.2863
      5 O           4.3198   -2.1315    0.0000 O.3     1  UNL1       -0.5009
      6 O           2.5381   -1.1211    0.0000 O.3     1  UNL1       -0.5032
      7 C           6.9343    0.4031    0.0000 C.ar    1  UNL1        0.1063
      8 C           5.2022    0.4031    0.0000 C.ar    1  UNL1        0.0686
      9 C           6.9343   -0.5969    0.0000 C.ar    1  UNL1        0.1464
     10 C           5.2022   -0.5969    0.0000 C.ar    1  UNL1        0.1841
     11 C           6.0682    0.9031    0.0000 C.ar    1  UNL1        0.2038
     12 C           7.8282    0.9378    0.0000 C.ar    1  UNL1        0.1379
     13 C           7.8282   -1.1316    0.0000 C.ar    1  UNL1        0.0233
     14 C           4.3083   -1.1316    0.0000 C.ar    1  UNL1        0.2021
     15 C           4.3083    0.9378    0.0000 C.ar    1  UNL1       -0.0437
     16 C           8.7343   -0.6177    0.0000 C.ar    1  UNL1        0.1271
     17 C           8.7343    0.4239    0.0000 C.ar    1  UNL1        0.0227
     18 C           3.4022   -0.6177    0.0000 C.ar    1  UNL1        0.1620
     19 C           3.4022    0.4239    0.0000 C.ar    1  UNL1       -0.0156
     20 C           8.6768    2.4477    0.0000 C.3     1  UNL1        0.0788
     21 C          10.4663   -0.6244    0.0000 C.3     1  UNL1        0.0788
     22 H           7.8210   -1.7515    0.0000 H       1  UNL1        0.0691
     23 H           4.3154    1.5577    0.0000 H       1  UNL1        0.0627
     24 H           9.2700    0.7360    0.0000 H       1  UNL1        0.0691
     25 H           2.8665    0.7360    0.0000 H       1  UNL1        0.0655
     26 H           3.7865   -2.4477    0.0000 H       1  UNL1        0.2924
     27 H           8.9930    1.9144    0.0000 H       1  UNL1        0.0660
     28 H           9.2102    2.7639    0.0000 H       1  UNL1        0.0660
     29 H           8.3606    2.9810    0.0000 H       1  UNL1        0.0660
     30 H           2.0000   -0.8131    0.0000 H       1  UNL1        0.2923
     31 H          10.7743   -1.1625    0.0000 H       1  UNL1        0.0660
     32 H          11.0045   -0.3165    0.0000 H       1  UNL1        0.0660
     33 H          10.1584   -0.0863    0.0000 H       1  UNL1        0.0660
@<TRIPOS>BOND
     1     1     9   ar
     2     1    10   ar
     3     2    12    1
     4     2    20    1
     5     3    16    1
     6     3    21    1
     7     4    11    2
     8     5    14    1
     9     5    26    1
    10     6    18    1
    11     6    30    1
    12     7     9   ar
    13     7    11   ar
    14     7    12   ar
    15     8    10   ar
    16     8    11   ar
    17     8    15   ar
    18     9    13   ar
    19    10    14   ar
    20    12    17   ar
    21    13    16   ar
    22    13    22    1
    23    14    18   ar
    24    15    19   ar
    25    15    23    1
    26    16    17   ar
    27    17    24    1
    28    18    19   ar
    29    19    25    1
    30    20    27    1
    31    20    28    1
    32    20    29    1
    33    21    31    1
    34    21    32    1
    35    21    33    1
