@<TRIPOS>MOLECULE
IMPHY008700
 21 20 0 0 0
SMALL
GASTEIGER

@<TRIPOS>ATOM
      1 S           7.1962    0.7500    0.0000 S.3     1  UNL1       -0.1636
      2 O           3.7320    0.7500    0.0000 O.3     1  UNL1       -0.4649
      3 O           4.5981   -0.7500    0.0000 O.2     1  UNL1       -0.2508
      4 C           5.4641    0.7500    0.0000 C.3     1  UNL1        0.0539
      5 C           6.3301    0.2500    0.0000 C.3     1  UNL1        0.0035
      6 C           4.5981    0.2500    0.0000 C.2     1  UNL1        0.3079
      7 C           2.8660    0.2500    0.0000 C.3     1  UNL1        0.0896
      8 C           2.0000    0.7500    0.0000 C.3     1  UNL1       -0.0306
      9 C           8.0622    0.2500    0.0000 C.3     1  UNL1       -0.0181
     10 H           5.8626    1.2250    0.0000 H       1  UNL1        0.0386
     11 H           5.0656    1.2250    0.0000 H       1  UNL1        0.0386
     12 H           5.9316   -0.2249    0.0000 H       1  UNL1        0.0381
     13 H           6.7287   -0.2249    0.0000 H       1  UNL1        0.0381
     14 H           2.4675   -0.2249    0.0000 H       1  UNL1        0.0694
     15 H           3.2646   -0.2249    0.0000 H       1  UNL1        0.0694
     16 H           2.3100    1.2869    0.0000 H       1  UNL1        0.0262
     17 H           1.4631    1.0600    0.0000 H       1  UNL1        0.0262
     18 H           1.6900    0.2131    0.0000 H       1  UNL1        0.0262
     19 H           7.7522   -0.2869    0.0000 H       1  UNL1        0.0340
     20 H           8.5991   -0.0600    0.0000 H       1  UNL1        0.0340
     21 H           8.3722    0.7869    0.0000 H       1  UNL1        0.0340
@<TRIPOS>BOND
     1     1     5    1
     2     1     9    1
     3     2     6    1
     4     2     7    1
     5     3     6    2
     6     4     5    1
     7     4     6    1
     8     4    10    1
     9     4    11    1
    10     5    12    1
    11     5    13    1
    12     7     8    1
    13     7    14    1
    14     7    15    1
    15     8    16    1
    16     8    17    1
    17     8    18    1
    18     9    19    1
    19     9    20    1
    20     9    21    1
