@<TRIPOS>MOLECULE
IMPHY000493
 33 35 0 0 0
SMALL
GASTEIGER

@<TRIPOS>ATOM
      1 C           2.1434   -2.8875    0.0000 C.3     1  UNL1        0.2525
      2 O           1.4289   -2.4750    0.0000 O.3     1  UNL1       -0.4715
      3 C           1.4289   -1.6500    0.0000 C.ar    1  UNL1        0.1406
      4 C           0.7145   -1.2375    0.0000 C.ar    1  UNL1        0.0553
      5 C           0.0000   -1.6500    0.0000 C.3     1  UNL1        0.0580
      6 C           0.0000   -2.4750    0.0000 C.2     1  UNL1       -0.0297
      7 C          -0.7145   -2.8875    0.0000 C.2     1  UNL1       -0.0475
      8 C          -0.7145   -3.7125    0.0000 C.3     1  UNL1        0.0260
      9 C          -1.4289   -2.4750    0.0000 C.3     1  UNL1        0.0260
     10 C           0.7145   -0.4125    0.0000 C.ar    1  UNL1        0.2009
     11 O           0.0000    0.0000    0.0000 O.3     1  UNL1       -0.2866
     12 C           1.4289    0.0000    0.0000 C.ar    1  UNL1        0.1119
     13 C           1.4289    0.8250    0.0000 C.2     1  UNL1        0.1974
     14 O           0.7145    1.2375    0.0000 O.2     1  UNL1       -0.2867
     15 C           2.1434    1.2375    0.0000 C.2     1  UNL1        0.0148
     16 C           2.8579    0.8250    0.0000 C.2     1  UNL1       -0.0272
     17 C           3.5724    1.2375    0.0000 C.3     1  UNL1        0.0258
     18 C           3.5724    2.0625    0.0000 C.3     1  UNL1        0.0051
     19 C           2.8579    2.4750    0.0000 C.3     1  UNL1        0.0069
     20 C           2.8579    3.3000    0.0000 C.3     1  UNL1        0.0004
     21 C           2.1434    2.0625    0.0000 C.3     1  UNL1        0.0555
     22 C           1.4289    2.4750    0.0000 C.3     1  UNL1        0.1561
     23 C           0.7145    2.0625    0.0000 C.3     1  UNL1        0.0358
     24 O           1.4289    3.3000    0.0000 O.3     1  UNL1       -0.2228
     25 C           2.1434   -0.4125    0.0000 C.ar    1  UNL1        0.1574
     26 O           2.8579    0.0000    0.0000 O.2     1  UNL1       -0.4210
     27 C           3.5724   -0.4125    0.0000 C.ar    1  UNL1        0.3414
     28 O           4.2868   -0.0000    0.0000 O.2     1  UNL1       -0.2448
     29 C           3.5724   -1.2375    0.0000 C.ar    1  UNL1        0.0504
     30 C           2.8579   -1.6500    0.0000 C.ar    1  UNL1       -0.0137
     31 C           2.8579   -2.4750    0.0000 C.3     1  UNL1        0.0311
     32 C           2.1434   -1.2375    0.0000 C.ar    1  UNL1        0.0646
     33 C           4.2868   -1.6500    0.0000 C.3     1  UNL1        0.0375
@<TRIPOS>BOND
     1     1     2    1
     2     2     3    1
     3     3     4   ar
     4     3    32   ar
     5     4     5    1
     6     4    10   ar
     7     5     6    1
     8     6     7    2
     9     7     8    1
    10     7     9    1
    11    10    11    1
    12    10    12   ar
    13    12    13    1
    14    12    25   ar
    15    13    14    2
    16    13    15    1
    17    15    16    2
    18    15    21    1
    19    16    17    1
    20    17    18    1
    21    18    19    1
    22    19    20    1
    23    19    21    1
    24    21    22    1
    25    22    23    1
    26    22    24    1
    27    25    26   ar
    28    25    32   ar
    29    26    27   ar
    30    27    28    2
    31    27    29   ar
    32    29    30   ar
    33    29    33    1
    34    30    31    1
    35    30    32   ar
