@<TRIPOS>MOLECULE
IMPHY006728
 38 39 0 0 0
SMALL
GASTEIGER

@<TRIPOS>ATOM
      1 O           8.5043    2.9285    0.0000 O.co2   1  UNL1       -0.5435
      2 O           7.9690    1.2812    0.0000 O.co2   1  UNL1       -0.5435
      3 O           2.5369   -2.0194    0.0000 O.3     1  UNL1       -0.4793
      4 OXT         3.4030   -3.5194    0.0000 O.2     1  UNL1       -0.2489
      5 O           7.7331   -2.0194    0.0000 O.3     1  UNL1       -0.4763
      6 OXT         6.8671   -3.5194    0.0000 O.2     1  UNL1       -0.2437
      7 N           6.0010    1.9806    0.0000 N.2     1  UNL1       -0.2264
      8 N           5.1350   -2.5194    0.0000 N.pl3   1  UNL1       -0.3256
      9 C           6.8100    2.5684    0.0000 C.3     1  UNL1        0.1943
     10 C           6.5010    3.5194    0.0000 C.3     1  UNL1        0.0208
     11 C           5.5010    3.5194    0.0000 C.3     1  UNL1        0.0129
     12 C           5.1920    2.5684    0.0000 C.3     1  UNL1        0.1459
     13 C           6.0010    0.9806    0.0000 C.2     1  UNL1        0.1667
     14 C           7.7611    2.2594    0.0000 C.2     1  UNL1        0.1099
     15 C           4.2690   -1.0194    0.0000 C.3     1  UNL1        0.0014
     16 C           5.1350   -0.5194    0.0000 C.2     1  UNL1       -0.0376
     17 CA          4.2690   -2.0194    0.0000 C.3     1  UNL1        0.1224
     18 C           5.1350    0.4806    0.0000 C.2     1  UNL1        0.0048
     19 C           6.0010   -1.0194    0.0000 C.2     1  UNL1       -0.0304
     20 CA          6.0010   -2.0194    0.0000 C.2     1  UNL1        0.1130
     21 C           3.4030   -2.5194    0.0000 C.2     1  UNL1        0.3255
     22 C           6.8671   -2.5194    0.0000 C.2     1  UNL1        0.3508
     23 H           6.9070    1.9560    0.0000 H       1  UNL1        0.1130
     24 H           7.1075    3.6483    0.0000 H       1  UNL1        0.0335
     25 H           6.4362    4.1360    0.0000 H       1  UNL1        0.0335
     26 H           5.5658    4.1360    0.0000 H       1  UNL1        0.0329
     27 H           4.8946    3.6483    0.0000 H       1  UNL1        0.0329
     28 H           4.6256    2.8205    0.0000 H       1  UNL1        0.1026
     29 H           4.8820    2.0314    0.0000 H       1  UNL1        0.1026
     30 H           6.5380    0.6706    0.0000 H       1  UNL1        0.1372
     31 H           4.0569   -0.4368    0.0000 H       1  UNL1        0.0337
     32 H           3.6584   -1.1271    0.0000 H       1  UNL1        0.0337
     33 HA          4.2690   -2.6394    0.0000 H       1  UNL1        0.0617
     34 H           4.5981    0.7906    0.0000 H       1  UNL1        0.0679
     35 H           5.1350   -3.1394    0.0000 H       1  UNL1        0.1471
     36 H           6.5380   -0.7094    0.0000 H       1  UNL1        0.0641
     37 H           2.0000   -2.3294    0.0000 H       1  UNL1        0.2951
     38 H           8.2700   -2.3294    0.0000 H       1  UNL1        0.2954
@<TRIPOS>UNITY_ATOM_ATTR
1 1
charge -1
7 1
charge 1
@<TRIPOS>BOND
     1     1    14   ar
     2     2    14   ar
     3     3    21    1
     4     3    37    1
     5     4    21    2
     6     5    22    1
     7     5    38    1
     8     6    22    2
     9     7     9    1
    10     7    12    1
    11     7    13    2
    12     8    17    1
    13     8    20    1
    14     8    35    1
    15     9    10    1
    16     9    14    1
    17     9    23    1
    18    10    11    1
    19    10    24    1
    20    10    25    1
    21    11    12    1
    22    11    26    1
    23    11    27    1
    24    12    28    1
    25    12    29    1
    26    13    18    1
    27    13    30    1
    28    15    16    1
    29    15    17    1
    30    15    31    1
    31    15    32    1
    32    16    18    2
    33    16    19    1
    34    17    21    1
    35    17    33    1
    36    18    34    1
    37    19    20    2
    38    19    36    1
    39    20    22    1
