@<TRIPOS>MOLECULE
IMPHY005200
 42 44 0 0 0
SMALL
GASTEIGER

@<TRIPOS>ATOM
      1 O           5.4920   -1.1897    0.0000 O.2     1  UNL1       -0.4619
      2 O           3.7320    1.8450    0.0000 O.3     1  UNL1       -0.5055
      3 O           2.0000   -1.1550    0.0000 O.3     1  UNL1       -0.5060
      4 O           5.4804    1.8796    0.0000 O.2     1  UNL1       -0.2866
      5 O          10.7340   -1.1175    0.0000 O.3     1  UNL1       -0.4951
      6 C           4.5981    0.3450    0.0000 C.ar    1  UNL1        0.1062
      7 C           4.5981   -0.6550    0.0000 C.ar    1  UNL1        0.1483
      8 C           6.3981    0.3658    0.0000 C.ar    1  UNL1        0.0391
      9 C           3.7320   -1.1550    0.0000 C.ar    1  UNL1        0.0343
     10 C           7.2622    0.8692    0.0000 C.3     1  UNL1        0.0041
     11 C           5.4920    0.8797    0.0000 C.ar    1  UNL1        0.1995
     12 C           3.7320    0.8450    0.0000 C.ar    1  UNL1        0.1376
     13 C           2.8660    0.3450    0.0000 C.ar    1  UNL1        0.0335
     14 C           2.8660   -0.6550    0.0000 C.ar    1  UNL1        0.1296
     15 C           8.1301    0.3725    0.0000 C.ar    1  UNL1       -0.0426
     16 C           6.3981   -0.6758    0.0000 C.ar    1  UNL1        0.0996
     17 C           3.7320   -2.1550    0.0000 C.3     1  UNL1       -0.0327
     18 C           2.0000    0.8450    0.0000 C.3     1  UNL1       -0.0327
     19 C           8.1340   -0.6275    0.0000 C.ar    1  UNL1       -0.0548
     20 C           8.9942    0.8758    0.0000 C.ar    1  UNL1       -0.0548
     21 C           9.0019   -1.1242    0.0000 C.ar    1  UNL1       -0.0197
     22 C           9.8622    0.3792    0.0000 C.ar    1  UNL1       -0.0197
     23 C           9.8660   -0.6208    0.0000 C.ar    1  UNL1        0.1201
     24 C          11.5981   -0.6141    0.0000 C.3     1  UNL1        0.0788
     25 H           7.6589    1.3456    0.0000 H       1  UNL1        0.0364
     26 H           6.8618    1.3426    0.0000 H       1  UNL1        0.0364
     27 H           6.9338   -0.9879    0.0000 H       1  UNL1        0.1033
     28 H           3.1120   -2.1550    0.0000 H       1  UNL1        0.0280
     29 H           3.7320   -2.7750    0.0000 H       1  UNL1        0.0280
     30 H           4.3520   -2.1550    0.0000 H       1  UNL1        0.0280
     31 H           2.3100    1.3819    0.0000 H       1  UNL1        0.0280
     32 H           1.4631    1.1550    0.0000 H       1  UNL1        0.0280
     33 H           1.6900    0.3081    0.0000 H       1  UNL1        0.0280
     34 H           7.5982   -0.9396    0.0000 H       1  UNL1        0.0622
     35 H           8.9918    1.4958    0.0000 H       1  UNL1        0.0622
     36 H           3.1951    2.1550    0.0000 H       1  UNL1        0.2922
     37 H           9.0043   -1.7442    0.0000 H       1  UNL1        0.0654
     38 H          10.3979    0.6912    0.0000 H       1  UNL1        0.0654
     39 H           2.0000   -1.7750    0.0000 H       1  UNL1        0.2922
     40 H          11.9101   -1.1499    0.0000 H       1  UNL1        0.0660
     41 H          12.1338   -0.3021    0.0000 H       1  UNL1        0.0660
     42 H          11.2860   -0.0784    0.0000 H       1  UNL1        0.0660
@<TRIPOS>BOND
     1     1     7   ar
     2     1    16   ar
     3     2    12    1
     4     2    36    1
     5     3    14    1
     6     3    39    1
     7     4    11    2
     8     5    23    1
     9     5    24    1
    10     6     7   ar
    11     6    11   ar
    12     6    12   ar
    13     7     9   ar
    14     8    10    1
    15     8    11   ar
    16     8    16   ar
    17     9    14   ar
    18     9    17    1
    19    10    15    1
    20    10    25    1
    21    10    26    1
    22    12    13   ar
    23    13    14   ar
    24    13    18    1
    25    15    19   ar
    26    15    20   ar
    27    16    27    1
    28    17    28    1
    29    17    29    1
    30    17    30    1
    31    18    31    1
    32    18    32    1
    33    18    33    1
    34    19    21   ar
    35    19    34    1
    36    20    22   ar
    37    20    35    1
    38    21    23   ar
    39    21    37    1
    40    22    23   ar
    41    22    38    1
    42    24    40    1
    43    24    41    1
    44    24    42    1
