@<TRIPOS>MOLECULE
IMPHY008810
 44 48 0 0 0
SMALL
GASTEIGER

@<TRIPOS>ATOM
      1 O           9.0826    2.6697    0.0000 O.3     1  UNL1       -0.3945
      2 O           2.5369    1.0542    0.0000 O.3     1  UNL1       -0.5067
      3 N           7.9146   -0.3141    0.0000 N.2     1  UNL1       -0.2226
      4 N           5.6588   -0.7482    0.0000 N.ar    1  UNL1       -0.3525
      5 C           7.9146    0.5542    0.0000 C.3     1  UNL1        0.1651
      6 C           8.6666    0.9884    0.0000 C.3     1  UNL1        0.0516
      7 C           7.9146   -2.0506    0.0000 C.3     1  UNL1        0.0068
      8 C           7.1627   -0.7482    0.0000 C.3     1  UNL1        0.1958
      9 C           7.1627   -1.6165    0.0000 C.3     1  UNL1        0.0228
     10 C           7.1627    0.9884    0.0000 C.3     1  UNL1        0.0374
     11 C           6.4108   -0.3141    0.0000 C.ar    1  UNL1        0.0890
     12 C           8.6666   -1.6165    0.0000 C.2     1  UNL1        0.0153
     13 C           6.4108    0.5542    0.0000 C.ar    1  UNL1       -0.0063
     14 C           8.6666   -0.7482    0.0000 C.2     1  UNL1        0.1699
     15 C           9.3600    1.7089    0.0000 C.3     1  UNL1        0.0536
     16 C           4.9069    0.5542    0.0000 C.ar    1  UNL1        0.0070
     17 C           4.9069   -0.3141    0.0000 C.ar    1  UNL1        0.0473
     18 C           9.5326   -2.1165    0.0000 C.2     1  UNL1       -0.0781
     19 C           4.1549    0.9884    0.0000 C.ar    1  UNL1       -0.0108
     20 C           4.1549   -0.7482    0.0000 C.ar    1  UNL1       -0.0343
     21 C           9.5326   -3.1165    0.0000 C.3     1  UNL1       -0.0461
     22 C           3.4030    0.5542    0.0000 C.ar    1  UNL1        0.1176
     23 C           3.4030   -0.3141    0.0000 C.ar    1  UNL1       -0.0182
     24 H           7.9146    1.4042    0.0000 H       1  UNL1        0.1070
     25 H           9.2684    0.8394    0.0000 H       1  UNL1        0.0394
     26 H           7.9146   -2.9006    0.0000 H       1  UNL1        0.0358
     27 H           6.4931   -1.2718    0.0000 H       1  UNL1        0.1133
     28 H           6.5521   -1.5088    0.0000 H       1  UNL1        0.0340
     29 H           6.9506   -2.1991    0.0000 H       1  UNL1        0.0340
     30 H           7.5612    1.4633    0.0000 H       1  UNL1        0.0379
     31 H           6.7642    1.4633    0.0000 H       1  UNL1        0.0379
     32 H           9.2035   -0.4382    0.0000 H       1  UNL1        0.1374
     33 H           9.7253    1.2080    0.0000 H       1  UNL1        0.0562
     34 H           9.9168    1.9817    0.0000 H       1  UNL1        0.0562
     35 H           5.6588   -1.3682    0.0000 H       1  UNL1        0.1658
     36 H          10.0696   -1.8065    0.0000 H       1  UNL1        0.0574
     37 H           4.1549    1.6084    0.0000 H       1  UNL1        0.0661
     38 H           9.5125    3.1165    0.0000 H       1  UNL1        0.2094
     39 H           4.1549   -1.3682    0.0000 H       1  UNL1        0.0639
     40 H           8.9126   -3.1165    0.0000 H       1  UNL1        0.0272
     41 H           9.5326   -3.7365    0.0000 H       1  UNL1        0.0272
     42 H          10.1526   -3.1165    0.0000 H       1  UNL1        0.0272
     43 H           2.8660   -0.6241    0.0000 H       1  UNL1        0.0655
     44 H           2.0000    0.7442    0.0000 H       1  UNL1        0.2921
@<TRIPOS>UNITY_ATOM_ATTR
3 1
charge 1
@<TRIPOS>BOND
     1     1    15    1
     2     1    38    1
     3     2    22    1
     4     2    44    1
     5     3     5    1
     6     3     8    1
     7     3    14    2
     8     4    11   ar
     9     4    17   ar
    10     4    35    1
    11     5     6    1
    12     5    10    1
    13     5    24    1
    14     6     7    1
    15     6    15    1
    16     6    25    1
    17     7     9    1
    18     7    12    1
    19     7    26    1
    20     8     9    1
    21     8    11    1
    22     8    27    1
    23     9    28    1
    24     9    29    1
    25    10    13    1
    26    10    30    1
    27    10    31    1
    28    11    13   ar
    29    12    14    1
    30    12    18    2
    31    13    16   ar
    32    14    32    1
    33    15    33    1
    34    15    34    1
    35    16    17   ar
    36    16    19   ar
    37    17    20   ar
    38    18    21    1
    39    18    36    1
    40    19    22   ar
    41    19    37    1
    42    20    23   ar
    43    20    39    1
    44    21    40    1
    45    21    41    1
    46    21    42    1
    47    22    23   ar
    48    23    43    1
