@<TRIPOS>MOLECULE
IMPHY017151
 14 13 0 0 0
SMALL
GASTEIGER

@<TRIPOS>ATOM
      1 O           2.0000   -0.5600    0.0000 O.2     1  UNL1       -0.3010
      2 C           4.5981   -0.0600    0.0000 C.3     1  UNL1       -0.0286
      3 C           3.7320   -0.5600    0.0000 C.3     1  UNL1        0.0062
      4 C           5.4641   -0.5600    0.0000 C.2     1  UNL1       -0.0907
      5 C           2.8660   -0.0600    0.0000 C.2     1  UNL1        0.1206
      6 C           6.3301   -0.0600    0.0000 C.2     1  UNL1       -0.1026
      7 H           4.9966    0.4149    0.0000 H       1  UNL1        0.0311
      8 H           4.1996    0.4149    0.0000 H       1  UNL1        0.0311
      9 H           3.3335   -1.0350    0.0000 H       1  UNL1        0.0342
     10 H           4.1306   -1.0350    0.0000 H       1  UNL1        0.0342
     11 H           5.4641   -1.1800    0.0000 H       1  UNL1        0.0566
     12 H           2.8660    0.5600    0.0000 H       1  UNL1        0.1026
     13 H           6.8671   -0.3700    0.0000 H       1  UNL1        0.0532
     14 H           6.3301    0.5600    0.0000 H       1  UNL1        0.0532
@<TRIPOS>BOND
     1     1     5    2
     2     2     3    1
     3     2     4    1
     4     2     7    1
     5     2     8    1
     6     3     5    1
     7     3     9    1
     8     3    10    1
     9     4     6    2
    10     4    11    1
    11     5    12    1
    12     6    13    1
    13     6    14    1
