@<TRIPOS>MOLECULE
IMPHY010640
 17 18 0 0 0
SMALL
GASTEIGER

@<TRIPOS>ATOM
      1 C           2.3011   -3.3169    0.0000 C.3     1  UNL1       -0.0034
      2 C           2.3011   -1.9832    0.0000 C.3     1  UNL1       -0.0190
      3 C           1.1540   -1.3268    0.0000 C.3     1  UNL1       -0.0036
      4 C           0.0000   -1.9832    0.0000 C.3     1  UNL1       -0.0003
      5 C           0.0000   -3.3169    0.0000 C.3     1  UNL1       -0.0000
      6 C           1.1540   -3.9872    0.0000 C.3     1  UNL1       -0.0003
      7 C           3.4551   -3.9872    0.0000 C.3     1  UNL1       -0.0002
      8 C           4.6091   -3.3169    0.0000 C.3     1  UNL1        0.0024
      9 C           4.6091   -1.9832    0.0000 C.3     1  UNL1        0.0278
     10 C           3.4551   -1.3268    0.0000 C.3     1  UNL1       -0.0015
     11 C           2.3011   -4.6437    0.0000 C.3     1  UNL1       -0.0003
     12 C           1.1540    0.0000    0.0000 C.3     1  UNL1       -0.0003
     13 C           5.7562   -1.3268    0.0000 C.3     1  UNL1        0.1267
     14 O           6.9102   -0.6565    0.0000 O.3     1  UNL1       -0.2257
     15 C           5.0859   -0.1728    0.0000 C.3     1  UNL1        0.0329
     16 C           6.4196   -2.4808    0.0000 C.3     1  UNL1        0.0329
     17 H           2.3011   -0.6565    0.0000 H       1  UNL1        0.0318
@<TRIPOS>BOND
     1     1     2    1
     2     1     6    1
     3     1     7    1
     4     1    11    1
     5     2     3    1
     6     2    10    1
     7     2    17    1
     8     3     4    1
     9     3    12    1
    10     4     5    1
    11     5     6    1
    12     7     8    1
    13     8     9    1
    14     9    10    1
    15     9    13    1
    16    13    14    1
    17    13    15    1
    18    13    16    1
