@<TRIPOS>MOLECULE
IMPHY007121
 30 32 0 0 0
SMALL
GASTEIGER

@<TRIPOS>ATOM
      1 O           3.9061    0.7500    0.0000 O.3     1  UNL1       -0.4808
      2 O           5.6660   -2.2846    0.0000 O.2     1  UNL1       -0.2671
      3 N           6.5320   -0.7846    0.0000 N.ar    1  UNL1       -0.3214
      4 C           3.0000    0.2362    0.0000 C.3     1  UNL1        0.1235
      5 C           4.8000    0.2154    0.0000 C.ar    1  UNL1        0.1431
      6 C           4.8000   -0.7846    0.0000 C.ar    1  UNL1        0.0814
      7 C           3.0000   -0.8054    0.0000 C.2     1  UNL1       -0.0407
      8 C           5.6660    0.7154    0.0000 C.ar    1  UNL1        0.0408
      9 C           2.0000    0.2400    0.0000 C.3     1  UNL1       -0.0215
     10 C           2.5033    1.1041    0.0000 C.3     1  UNL1       -0.0215
     11 C           3.9061   -1.3193    0.0000 C.2     1  UNL1       -0.0461
     12 C           6.5320    0.2154    0.0000 C.ar    1  UNL1        0.0527
     13 C           5.6660   -1.2846    0.0000 C.ar    1  UNL1        0.2599
     14 C           5.6500    1.7569    0.0000 C.ar    1  UNL1       -0.0491
     15 C           7.4420    0.7222    0.0000 C.ar    1  UNL1       -0.0376
     16 C           6.5480    2.2846    0.0000 C.ar    1  UNL1       -0.0610
     17 C           7.4501    1.7638    0.0000 C.ar    1  UNL1       -0.0598
     18 H           2.4643   -1.1175    0.0000 H       1  UNL1        0.0611
     19 H           2.0024    0.8600    0.0000 H       1  UNL1        0.0271
     20 H           1.3800    0.2424    0.0000 H       1  UNL1        0.0271
     21 H           1.9976   -0.3800    0.0000 H       1  UNL1        0.0271
     22 H           3.0415    1.4121    0.0000 H       1  UNL1        0.0271
     23 H           2.1954    1.6423    0.0000 H       1  UNL1        0.0271
     24 H           1.9652    0.7962    0.0000 H       1  UNL1        0.0271
     25 H           3.9132   -1.9392    0.0000 H       1  UNL1        0.0624
     26 H           7.0690   -1.0946    0.0000 H       1  UNL1        0.1689
     27 H           5.1095    2.0606    0.0000 H       1  UNL1        0.0625
     28 H           7.9754    0.4060    0.0000 H       1  UNL1        0.0638
     29 H           6.5456    2.9046    0.0000 H       1  UNL1        0.0618
     30 H           7.9882    2.0717    0.0000 H       1  UNL1        0.0618
@<TRIPOS>BOND
     1     1     4    1
     2     1     5    1
     3     2    13    2
     4     3    12   ar
     5     3    13   ar
     6     3    26    1
     7     4     7    1
     8     4     9    1
     9     4    10    1
    10     5     6   ar
    11     5     8   ar
    12     6    11    1
    13     6    13   ar
    14     7    11    2
    15     7    18    1
    16     8    12   ar
    17     8    14   ar
    18     9    19    1
    19     9    20    1
    20     9    21    1
    21    10    22    1
    22    10    23    1
    23    10    24    1
    24    11    25    1
    25    12    15   ar
    26    14    16   ar
    27    14    27    1
    28    15    17   ar
    29    15    28    1
    30    16    17   ar
    31    16    29    1
    32    17    30    1
