@<TRIPOS>MOLECULE
IMPHY015983
 42 44 0 0 0
SMALL
GASTEIGER

@<TRIPOS>ATOM
      1 O           2.8658   -1.7963    0.0000 O.3     1  UNL1       -0.3567
      2 O           2.0000    0.7042    0.0000 O.2     1  UNL1       -0.2942
      3 O           5.4641   -2.2958    0.0000 O.3     1  UNL1       -0.3946
      4 C           4.5981    0.2042    0.0000 C.3     1  UNL1       -0.0144
      5 C           3.7320   -1.2958    0.0000 C.3     1  UNL1        0.1060
      6 C           4.5981   -0.7958    0.0000 C.3     1  UNL1        0.0199
      7 C           3.7320    0.7042    0.0000 C.3     1  UNL1        0.0311
      8 C           2.8660   -0.7958    0.0000 C.3     1  UNL1        0.1464
      9 C           3.7160    1.7457    0.0000 C.3     1  UNL1       -0.0248
     10 C           5.5081    0.7110    0.0000 C.3     1  UNL1       -0.0465
     11 C           2.8660    0.2042    0.0000 C.2     1  UNL1        0.1687
     12 C           4.6140    2.2734    0.0000 C.3     1  UNL1       -0.0472
     13 C           5.5161    1.7526    0.0000 C.3     1  UNL1       -0.0520
     14 C           5.4641   -0.2958    0.0000 C.3     1  UNL1       -0.0585
     15 C           4.5981   -1.7958    0.0000 C.3     1  UNL1       -0.0326
     16 C           5.4641   -1.2958    0.0000 C.3     1  UNL1        0.0502
     17 C           3.2060    2.6059    0.0000 C.3     1  UNL1       -0.0592
     18 C           2.7161    1.7341    0.0000 C.3     1  UNL1       -0.0592
     19 H           5.1350   -0.4858    0.0000 H       1  UNL1        0.0357
     20 H           2.9927    1.1235    0.0000 H       1  UNL1        0.0389
     21 H           2.0160   -0.7957    0.0000 H       1  UNL1        0.0705
     22 H           5.7126    0.1257    0.0000 H       1  UNL1        0.0271
     23 H           6.1197    0.8124    0.0000 H       1  UNL1        0.0271
     24 H           5.0113    2.7494    0.0000 H       1  UNL1        0.0271
     25 H           4.2131    2.7463    0.0000 H       1  UNL1        0.0271
     26 H           6.1261    1.6418    0.0000 H       1  UNL1        0.0266
     27 H           5.7297    2.3347    0.0000 H       1  UNL1        0.0266
     28 H           5.1541   -0.8328    0.0000 H       1  UNL1        0.0235
     29 H           6.0010   -0.6058    0.0000 H       1  UNL1        0.0235
     30 H           5.7741    0.2411    0.0000 H       1  UNL1        0.0235
     31 H           4.2881   -2.3328    0.0000 H       1  UNL1        0.0258
     32 H           5.1350   -2.1059    0.0000 H       1  UNL1        0.0258
     33 H           4.9081   -1.2589    0.0000 H       1  UNL1        0.0258
     34 H           6.0747   -1.4035    0.0000 H       1  UNL1        0.0561
     35 H           5.6762   -0.7132    0.0000 H       1  UNL1        0.0561
     36 H           3.7393    2.9220    0.0000 H       1  UNL1        0.0235
     37 H           2.8898    3.1392    0.0000 H       1  UNL1        0.0235
     38 H           2.6727    2.2897    0.0000 H       1  UNL1        0.0235
     39 H           2.7089    2.3541    0.0000 H       1  UNL1        0.0235
     40 H           2.0961    1.7269    0.0000 H       1  UNL1        0.0235
     41 H           2.7232    1.1141    0.0000 H       1  UNL1        0.0235
     42 H           6.0010   -2.6059    0.0000 H       1  UNL1        0.2094
@<TRIPOS>BOND
     1     1     5    1
     2     1     8    1
     3     2    11    2
     4     3    16    1
     5     3    42    1
     6     4     6    1
     7     4     7    1
     8     4    10    1
     9     4    14    1
    10     5     6    1
    11     5     8    1
    12     5    15    1
    13     6    16    1
    14     6    19    1
    15     7     9    1
    16     7    11    1
    17     7    20    1
    18     8    11    1
    19     8    21    1
    20     9    12    1
    21     9    17    1
    22     9    18    1
    23    10    13    1
    24    10    22    1
    25    10    23    1
    26    12    13    1
    27    12    24    1
    28    12    25    1
    29    13    26    1
    30    13    27    1
    31    14    28    1
    32    14    29    1
    33    14    30    1
    34    15    31    1
    35    15    32    1
    36    15    33    1
    37    16    34    1
    38    16    35    1
    39    17    36    1
    40    17    37    1
    41    17    38    1
    42    18    39    1
    43    18    40    1
    44    18    41    1
