@<TRIPOS>MOLECULE
IMPHY005205
 42 43 0 0 0
SMALL
GASTEIGER

@<TRIPOS>ATOM
      1 O           6.0010   -0.5950    0.0000 O.3     1  UNL1       -0.4942
      2 O           2.5369   -2.5950    0.0000 O.3     1  UNL1       -0.4885
      3 O           2.5369   -0.5950    0.0000 O.3     1  UNL1       -0.5027
      4 O           4.2690   -3.5950    0.0000 O.3     1  UNL1       -0.5031
      5 O           6.8671    0.9050    0.0000 O.3     1  UNL1       -0.4945
      6 O           3.4030    0.9050    0.0000 O.2     1  UNL1       -0.2870
      7 C           4.2690   -0.5950    0.0000 C.ar    1  UNL1        0.1084
      8 C           5.1350   -1.0950    0.0000 C.ar    1  UNL1        0.1381
      9 C           3.4030   -1.0950    0.0000 C.ar    1  UNL1        0.1768
     10 C           3.4030   -2.0950    0.0000 C.ar    1  UNL1        0.2040
     11 C           5.1350   -2.0950    0.0000 C.ar    1  UNL1        0.0261
     12 C           4.2690   -2.5950    0.0000 C.ar    1  UNL1        0.1657
     13 C           4.2690    0.4050    0.0000 C.2     1  UNL1        0.1932
     14 C           6.0010    2.4050    0.0000 C.ar    1  UNL1        0.0168
     15 C           5.1350    0.9050    0.0000 C.2     1  UNL1       -0.0134
     16 C           5.1350    1.9050    0.0000 C.2     1  UNL1       -0.0475
     17 C           6.8671    1.9050    0.0000 C.ar    1  UNL1        0.1272
     18 C           6.0010    3.4050    0.0000 C.ar    1  UNL1       -0.0511
     19 C           7.7331    2.4050    0.0000 C.ar    1  UNL1       -0.0194
     20 C           6.8671    3.9050    0.0000 C.ar    1  UNL1       -0.0610
     21 C           7.7331    3.4050    0.0000 C.ar    1  UNL1       -0.0583
     22 C           6.8671   -1.0950    0.0000 C.3     1  UNL1        0.0788
     23 C           2.5369   -3.5950    0.0000 C.3     1  UNL1        0.0791
     24 C           7.7331    0.4050    0.0000 C.3     1  UNL1        0.0788
     25 H           5.6720   -2.4050    0.0000 H       1  UNL1        0.0692
     26 H           5.6720    0.5950    0.0000 H       1  UNL1        0.0656
     27 H           4.5981    2.2150    0.0000 H       1  UNL1        0.0626
     28 H           5.4641    3.7150    0.0000 H       1  UNL1        0.0625
     29 H           8.2700    2.0950    0.0000 H       1  UNL1        0.0654
     30 H           6.8671    4.5250    0.0000 H       1  UNL1        0.0618
     31 H           8.2700    3.7150    0.0000 H       1  UNL1        0.0619
     32 H           2.0000   -0.9050    0.0000 H       1  UNL1        0.2923
     33 H           6.5571   -1.6319    0.0000 H       1  UNL1        0.0660
     34 H           7.4040   -1.4050    0.0000 H       1  UNL1        0.0660
     35 H           7.1771   -0.5581    0.0000 H       1  UNL1        0.0660
     36 H           4.8059   -3.9050    0.0000 H       1  UNL1        0.2923
     37 H           1.9169   -3.5950    0.0000 H       1  UNL1        0.0660
     38 H           2.5369   -4.2150    0.0000 H       1  UNL1        0.0660
     39 H           3.1569   -3.5950    0.0000 H       1  UNL1        0.0660
     40 H           7.4231   -0.1319    0.0000 H       1  UNL1        0.0660
     41 H           8.2700    0.0950    0.0000 H       1  UNL1        0.0660
     42 H           8.0431    0.9419    0.0000 H       1  UNL1        0.0660
@<TRIPOS>BOND
     1     1     8    1
     2     1    22    1
     3     2    10    1
     4     2    23    1
     5     3     9    1
     6     3    32    1
     7     4    12    1
     8     4    36    1
     9     5    17    1
    10     5    24    1
    11     6    13    2
    12     7     8   ar
    13     7     9   ar
    14     7    13    1
    15     8    11   ar
    16     9    10   ar
    17    10    12   ar
    18    11    12   ar
    19    11    25    1
    20    13    15    1
    21    14    16    1
    22    14    17   ar
    23    14    18   ar
    24    15    16    2
    25    15    26    1
    26    16    27    1
    27    17    19   ar
    28    18    20   ar
    29    18    28    1
    30    19    21   ar
    31    19    29    1
    32    20    21   ar
    33    20    30    1
    34    21    31    1
    35    22    33    1
    36    22    34    1
    37    22    35    1
    38    23    37    1
    39    23    38    1
    40    23    39    1
    41    24    40    1
    42    24    41    1
    43    24    42    1
