@<TRIPOS>MOLECULE
IMPHY000335
 45 49 0 0 0
SMALL
GASTEIGER

@<TRIPOS>ATOM
      1 O           9.0826    2.6697    0.0000 O.3     1  UNL1       -0.3947
      2 O           2.5369    1.0542    0.0000 O.3     1  UNL1       -0.5067
      3 N           7.9146   -0.3141    0.0000 N.3     1  UNL1       -0.2899
      4 N           5.6588   -0.7482    0.0000 N.ar    1  UNL1       -0.3564
      5 C           7.9146   -2.0506    0.0000 C.3     1  UNL1       -0.0255
      6 C           7.9146    0.5542    0.0000 C.3     1  UNL1        0.0203
      7 C           8.6666    0.9884    0.0000 C.3     1  UNL1        0.0016
      8 C           7.1627   -0.7482    0.0000 C.3     1  UNL1        0.0515
      9 C           7.1627   -1.6165    0.0000 C.3     1  UNL1       -0.0280
     10 C           8.6666   -1.6165    0.0000 C.3     1  UNL1       -0.0071
     11 C           8.6666   -0.7482    0.0000 C.3     1  UNL1        0.0063
     12 C           7.1627    0.9884    0.0000 C.3     1  UNL1       -0.0093
     13 C           6.4108   -0.3141    0.0000 C.ar    1  UNL1        0.0376
     14 C           6.4108    0.5542    0.0000 C.ar    1  UNL1       -0.0160
     15 C           9.3600    1.7089    0.0000 C.3     1  UNL1        0.0487
     16 C           9.5326   -2.1165    0.0000 C.2     1  UNL1       -0.0865
     17 C           4.9069    0.5542    0.0000 C.ar    1  UNL1        0.0066
     18 C           4.9069   -0.3141    0.0000 C.ar    1  UNL1        0.0472
     19 C           4.1549    0.9884    0.0000 C.ar    1  UNL1       -0.0108
     20 C           9.5326   -3.1165    0.0000 C.2     1  UNL1       -0.1023
     21 C           4.1549   -0.7482    0.0000 C.ar    1  UNL1       -0.0343
     22 C           3.4030    0.5542    0.0000 C.ar    1  UNL1        0.1176
     23 C           3.4030   -0.3141    0.0000 C.ar    1  UNL1       -0.0182
     24 H           7.9146   -2.9006    0.0000 H       1  UNL1        0.0311
     25 H           7.9146    1.4042    0.0000 H       1  UNL1        0.0469
     26 H           9.2684    0.8394    0.0000 H       1  UNL1        0.0341
     27 H           6.4931   -1.2718    0.0000 H       1  UNL1        0.0527
     28 H           6.5521   -1.5088    0.0000 H       1  UNL1        0.0287
     29 H           6.9506   -2.1991    0.0000 H       1  UNL1        0.0287
     30 H           8.6666   -2.2365    0.0000 H       1  UNL1        0.0358
     31 H           9.2772   -0.8559    0.0000 H       1  UNL1        0.0433
     32 H           8.8786   -0.1656    0.0000 H       1  UNL1        0.0433
     33 H           7.5612    1.4633    0.0000 H       1  UNL1        0.0329
     34 H           6.7642    1.4633    0.0000 H       1  UNL1        0.0329
     35 H           9.7253    1.2080    0.0000 H       1  UNL1        0.0560
     36 H           9.9168    1.9817    0.0000 H       1  UNL1        0.0560
     37 H          10.0696   -1.8065    0.0000 H       1  UNL1        0.0570
     38 H           5.6588   -1.3682    0.0000 H       1  UNL1        0.1656
     39 H           9.5125    3.1165    0.0000 H       1  UNL1        0.2094
     40 H           4.1549    1.6084    0.0000 H       1  UNL1        0.0661
     41 H           8.9957   -3.4265    0.0000 H       1  UNL1        0.0532
     42 H          10.0696   -3.4265    0.0000 H       1  UNL1        0.0532
     43 H           4.1549   -1.3682    0.0000 H       1  UNL1        0.0639
     44 H           2.8660   -0.6241    0.0000 H       1  UNL1        0.0655
     45 H           2.0000    0.7442    0.0000 H       1  UNL1        0.2921
@<TRIPOS>BOND
     1     1    15    1
     2     1    39    1
     3     2    22    1
     4     2    45    1
     5     3     6    1
     6     3     8    1
     7     3    11    1
     8     4    13   ar
     9     4    18   ar
    10     4    38    1
    11     5     7    1
    12     5     9    1
    13     5    10    1
    14     5    24    1
    15     6     7    1
    16     6    12    1
    17     6    25    1
    18     7    15    1
    19     7    26    1
    20     8     9    1
    21     8    13    1
    22     8    27    1
    23     9    28    1
    24     9    29    1
    25    10    11    1
    26    10    16    1
    27    10    30    1
    28    11    31    1
    29    11    32    1
    30    12    14    1
    31    12    33    1
    32    12    34    1
    33    13    14   ar
    34    14    17   ar
    35    15    35    1
    36    15    36    1
    37    16    20    2
    38    16    37    1
    39    17    18   ar
    40    17    19   ar
    41    18    21   ar
    42    19    22   ar
    43    19    40    1
    44    20    41    1
    45    20    42    1
    46    21    23   ar
    47    21    43    1
    48    22    23   ar
    49    23    44    1
