@<TRIPOS>MOLECULE
IMPHY002764
 86 89 0 0 0
SMALL
GASTEIGER

@<TRIPOS>ATOM
      1 O           8.8564   -3.1184    0.0000 O.3     1  UNL1       -0.3674
      2 O           7.6079   -3.2870    0.0000 O.3     1  UNL1       -0.4607
      3 O           9.3564    0.7476    0.0000 O.3     1  UNL1       -0.4612
      4 O           9.3564   -3.2524    0.0000 O.3     1  UNL1       -0.4640
      5 O           5.4043    0.9745    0.0000 O.3     1  UNL1       -0.4566
      6 O           5.8760   -3.3070    0.0000 O.2     1  UNL1       -0.2512
      7 O          11.0884    0.7476    0.0000 O.2     1  UNL1       -0.2512
      8 O           7.3090    3.7081    0.0000 O.3     1  UNL1       -0.4570
      9 O           8.4903   -4.7524    0.0000 O.2     1  UNL1       -0.2512
     10 O           4.8308    2.6088    0.0000 O.2     1  UNL1       -0.2505
     11 O           5.8983    4.7969    0.0000 O.2     1  UNL1       -0.2456
     12 C           8.4903   -1.7524    0.0000 C.3     1  UNL1        0.0794
     13 C           9.3564   -2.2524    0.0000 C.3     1  UNL1        0.1054
     14 C           8.4903   -0.7524    0.0000 C.3     1  UNL1        0.0168
     15 C           7.5964   -0.2178    0.0000 C.3     1  UNL1       -0.0187
     16 C           7.5964   -2.2871    0.0000 C.3     1  UNL1        0.1151
     17 C           9.3564   -0.2524    0.0000 C.3     1  UNL1        0.1073
     18 C           6.6903   -0.7316    0.0000 C.3     1  UNL1       -0.0346
     19 C          10.2224   -1.7524    0.0000 C.3     1  UNL1       -0.0174
     20 C           9.8564   -3.1184    0.0000 C.3     1  UNL1        0.0783
     21 C           6.6903   -1.7732    0.0000 C.3     1  UNL1       -0.0118
     22 C          10.2224   -0.7524    0.0000 C.3     1  UNL1       -0.0127
     23 C           8.4903   -2.7524    0.0000 C.3     1  UNL1        0.1046
     24 C           7.1064    0.6540    0.0000 C.3     1  UNL1       -0.0055
     25 C           8.1064    0.6424    0.0000 C.3     1  UNL1       -0.0588
     26 C           5.7048   -0.9014    0.0000 C.3     1  UNL1       -0.0618
     27 C           6.3479    1.3056    0.0000 C.3     1  UNL1        0.1282
     28 C           6.5329    2.2883    0.0000 C.2     1  UNL1        0.0142
     29 C           6.7478   -3.7970    0.0000 C.2     1  UNL1        0.3042
     30 C          10.2224    1.2476    0.0000 C.2     1  UNL1        0.3042
     31 C           9.3564   -4.2524    0.0000 C.2     1  UNL1        0.3040
     32 C           7.4367    2.7163    0.0000 C.3     1  UNL1        0.1178
     33 C           6.7593   -4.7969    0.0000 C.3     1  UNL1        0.0332
     34 C           5.8466    3.0157    0.0000 C.2     1  UNL1        0.0284
     35 C          10.2224    2.2476    0.0000 C.3     1  UNL1        0.0332
     36 C           4.6457    1.6261    0.0000 C.2     1  UNL1        0.3105
     37 C          10.2224   -4.7524    0.0000 C.3     1  UNL1        0.0332
     38 C           6.3262    3.8931    0.0000 C.2     1  UNL1        0.3324
     39 C           3.7022    1.2950    0.0000 C.3     1  UNL1        0.0534
     40 C           2.9436    1.9466    0.0000 C.3     1  UNL1       -0.0432
     41 C           3.5171    0.3122    0.0000 C.3     1  UNL1       -0.0523
     42 C           2.0000    1.6154    0.0000 C.3     1  UNL1       -0.0645
     43 H           8.4969    0.0976    0.0000 H       1  UNL1        0.0350
     44 H           7.0625   -2.6022    0.0000 H       1  UNL1        0.0742
     45 H           9.8933    0.0576    0.0000 H       1  UNL1        0.0737
     46 H           6.4816   -0.1478    0.0000 H       1  UNL1        0.0305
     47 H          10.4344   -2.3350    0.0000 H       1  UNL1        0.0295
     48 H          10.8330   -1.6448    0.0000 H       1  UNL1        0.0295
     49 H           9.9640   -3.7290    0.0000 H       1  UNL1        0.0589
     50 H          10.4390   -2.9064    0.0000 H       1  UNL1        0.0589
     51 H           6.0795   -1.6671    0.0000 H       1  UNL1        0.0304
     52 H           6.4813   -2.3569    0.0000 H       1  UNL1        0.0304
     53 H          10.8330   -0.8601    0.0000 H       1  UNL1        0.0302
     54 H          10.4344   -0.1698    0.0000 H       1  UNL1        0.0302
     55 H           7.8797   -2.6448    0.0000 H       1  UNL1        0.0705
     56 H           8.2783   -3.3350    0.0000 H       1  UNL1        0.0705
     57 H           7.7230    0.7188    0.0000 H       1  UNL1        0.0310
     58 H           6.6269    0.2610    0.0000 H       1  UNL1        0.0310
     59 H           8.6397    0.3262    0.0000 H       1  UNL1        0.0235
     60 H           8.4226    1.1758    0.0000 H       1  UNL1        0.0235
     61 H           7.5730    0.9586    0.0000 H       1  UNL1        0.0235
     62 H           5.5995   -0.2905    0.0000 H       1  UNL1        0.0233
     63 H           5.0938   -1.0068    0.0000 H       1  UNL1        0.0233
     64 H           5.8102   -1.5124    0.0000 H       1  UNL1        0.0233
     65 H           6.2331    0.6963    0.0000 H       1  UNL1        0.0783
     66 H           7.6420    2.1313    0.0000 H       1  UNL1        0.0747
     67 H           8.0400    2.8593    0.0000 H       1  UNL1        0.0747
     68 H           6.1394   -4.8041    0.0000 H       1  UNL1        0.0342
     69 H           6.7665   -5.4169    0.0000 H       1  UNL1        0.0342
     70 H           7.3793   -4.7898    0.0000 H       1  UNL1        0.0342
     71 H           5.2317    2.9365    0.0000 H       1  UNL1        0.0691
     72 H          10.8424    2.2476    0.0000 H       1  UNL1        0.0342
     73 H          10.2224    2.8676    0.0000 H       1  UNL1        0.0342
     74 H           9.6024    2.2476    0.0000 H       1  UNL1        0.0342
     75 H           9.9124   -5.2894    0.0000 H       1  UNL1        0.0342
     76 H          10.7593   -5.0624    0.0000 H       1  UNL1        0.0342
     77 H          10.5324   -4.2155    0.0000 H       1  UNL1        0.0342
     78 H           3.1171    1.0897    0.0000 H       1  UNL1        0.0410
     79 H           3.4231    2.3396    0.0000 H       1  UNL1        0.0270
     80 H           2.6398    2.4871    0.0000 H       1  UNL1        0.0270
     81 H           2.9078    0.4269    0.0000 H       1  UNL1        0.0238
     82 H           3.4024   -0.2971    0.0000 H       1  UNL1        0.0238
     83 H           4.1264    0.1975    0.0000 H       1  UNL1        0.0238
     84 H           1.7947    2.2005    0.0000 H       1  UNL1        0.0230
     85 H           1.4150    1.4101    0.0000 H       1  UNL1        0.0230
     86 H           2.2053    1.0304    0.0000 H       1  UNL1        0.0230
@<TRIPOS>BOND
     1    13     1    1
     2     1    20    1
     3    16     2    1
     4     2    29    1
     5     3    17    1
     6     3    30    1
     7     4    23    1
     8     4    31    1
     9    27     5    1
    10     5    36    1
    11     6    29    2
    12     7    30    2
    13     8    32    1
    14     8    38    1
    15     9    31    2
    16    10    36    2
    17    11    38    2
    18    12    13    1
    19    12    14    1
    20    12    16    1
    21    12    23    1
    22    13    19    1
    23    13    20    1
    24    14    15    1
    25    14    17    1
    26    14    43    1
    27    15    18    1
    28    15    24    1
    29    15    25    1
    30    16    21    1
    31    16    44    1
    32    17    22    1
    33    17    45    1
    34    18    21    1
    35    18    26    1
    36    18    46    1
    37    19    22    1
    38    19    47    1
    39    19    48    1
    40    20    49    1
    41    20    50    1
    42    21    51    1
    43    21    52    1
    44    22    53    1
    45    22    54    1
    46    23    55    1
    47    23    56    1
    48    24    27    1
    49    24    57    1
    50    24    58    1
    51    25    59    1
    52    25    60    1
    53    25    61    1
    54    26    62    1
    55    26    63    1
    56    26    64    1
    57    27    28    1
    58    27    65    1
    59    28    32    1
    60    28    34    2
    61    29    33    1
    62    30    35    1
    63    31    37    1
    64    32    66    1
    65    32    67    1
    66    33    68    1
    67    33    69    1
    68    33    70    1
    69    34    38    1
    70    34    71    1
    71    35    72    1
    72    35    73    1
    73    35    74    1
    74    36    39    1
    75    37    75    1
    76    37    76    1
    77    37    77    1
    78    39    40    1
    79    39    41    1
    80    39    78    1
    81    40    42    1
    82    40    79    1
    83    40    80    1
    84    41    81    1
    85    41    82    1
    86    41    83    1
    87    42    84    1
    88    42    85    1
    89    42    86    1
