@<TRIPOS>MOLECULE
IMPHY017773
 38 38 0 0 0
SMALL
GASTEIGER

@<TRIPOS>ATOM
      1 O           5.4641   -1.7500    0.0000 O.3     1  UNL1       -0.4588
      2 O           8.9282    0.2500    0.0000 O.3     1  UNL1       -0.4588
      3 O           2.8660   -1.2500    0.0000 O.3     1  UNL1       -0.3796
      4 O           9.7942    2.7500    0.0000 O.3     1  UNL1       -0.3796
      5 O           6.3301   -0.2500    0.0000 O.2     1  UNL1       -0.2449
      6 O           7.1962    0.2500    0.0000 O.2     1  UNL1       -0.2449
      7 C           7.1962   -1.7500    0.0000 C.ar    1  UNL1        0.0729
      8 C           8.0622   -1.2500    0.0000 C.ar    1  UNL1        0.0729
      9 C           7.1962   -2.7500    0.0000 C.ar    1  UNL1       -0.0470
     10 C           8.9282   -1.7500    0.0000 C.ar    1  UNL1       -0.0470
     11 C           6.3301   -1.2500    0.0000 C.2     1  UNL1        0.3401
     12 C           8.0622   -0.2500    0.0000 C.2     1  UNL1        0.3401
     13 C           4.5981   -1.2500    0.0000 C.3     1  UNL1        0.1160
     14 C           8.9282    1.2500    0.0000 C.3     1  UNL1        0.1160
     15 C           8.0622   -3.2500    0.0000 C.ar    1  UNL1       -0.0609
     16 C           8.9282   -2.7500    0.0000 C.ar    1  UNL1       -0.0609
     17 C           3.7320   -1.7500    0.0000 C.3     1  UNL1        0.0815
     18 C           9.7942    1.7500    0.0000 C.3     1  UNL1        0.0815
     19 C           2.0000   -1.7500    0.0000 C.3     1  UNL1        0.0366
     20 C          10.6603    3.2500    0.0000 C.3     1  UNL1        0.0366
     21 H           6.6592   -3.0600    0.0000 H       1  UNL1        0.0626
     22 H           9.4651   -1.4400    0.0000 H       1  UNL1        0.0626
     23 H           4.9966   -0.7751    0.0000 H       1  UNL1        0.0721
     24 H           4.1996   -0.7751    0.0000 H       1  UNL1        0.0721
     25 H           8.7162    1.8326    0.0000 H       1  UNL1        0.0721
     26 H           8.3176    1.1423    0.0000 H       1  UNL1        0.0721
     27 H           8.0622   -3.8700    0.0000 H       1  UNL1        0.0618
     28 H           9.4651   -3.0600    0.0000 H       1  UNL1        0.0618
     29 H           3.3335   -2.2250    0.0000 H       1  UNL1        0.0593
     30 H           4.1306   -2.2250    0.0000 H       1  UNL1        0.0593
     31 H          10.0063    1.1674    0.0000 H       1  UNL1        0.0593
     32 H          10.4048    1.8577    0.0000 H       1  UNL1        0.0593
     33 H           1.6900   -1.2131    0.0000 H       1  UNL1        0.0524
     34 H           1.4631   -2.0600    0.0000 H       1  UNL1        0.0524
     35 H           2.3100   -2.2869    0.0000 H       1  UNL1        0.0524
     36 H          10.9703    2.7131    0.0000 H       1  UNL1        0.0524
     37 H          11.1972    3.5600    0.0000 H       1  UNL1        0.0524
     38 H          10.3503    3.7869    0.0000 H       1  UNL1        0.0524
@<TRIPOS>BOND
     1     1    11    1
     2     1    13    1
     3     2    12    1
     4     2    14    1
     5     3    17    1
     6     3    19    1
     7     4    18    1
     8     4    20    1
     9     5    11    2
    10     6    12    2
    11     7     8   ar
    12     7     9   ar
    13     7    11    1
    14     8    10   ar
    15     8    12    1
    16     9    15   ar
    17     9    21    1
    18    10    16   ar
    19    10    22    1
    20    13    17    1
    21    13    23    1
    22    13    24    1
    23    14    18    1
    24    14    25    1
    25    14    26    1
    26    15    16   ar
    27    15    27    1
    28    16    28    1
    29    17    29    1
    30    17    30    1
    31    18    31    1
    32    18    32    1
    33    19    33    1
    34    19    34    1
    35    19    35    1
    36    20    36    1
    37    20    37    1
    38    20    38    1
