@<TRIPOS>MOLECULE
IMPHY015711
 38 40 0 0 0
SMALL
GASTEIGER

@<TRIPOS>ATOM
      1 O           2.0000    1.7241    0.0000 O.2     1  UNL1       -0.3004
      2 C           4.3660   -0.6419    0.0000 C.3     1  UNL1       -0.0049
      3 C           3.5000   -0.1419    0.0000 C.3     1  UNL1       -0.0191
      4 C           3.5000    0.8581    0.0000 C.3     1  UNL1        0.0355
      5 C           4.3660    1.3581    0.0000 C.3     1  UNL1       -0.0020
      6 C           4.1568   -1.6138    0.0000 C.3     1  UNL1       -0.0345
      7 C           5.2320   -0.1419    0.0000 C.3     1  UNL1       -0.0426
      8 C           2.7630   -0.8090    0.0000 C.3     1  UNL1       -0.0482
      9 C           5.2320    0.8581    0.0000 C.3     1  UNL1       -0.0425
     10 C           3.1681   -1.7168    0.0000 C.3     1  UNL1       -0.0494
     11 C           3.9660   -0.0419    0.0000 C.2     1  UNL1       -0.0807
     12 C           3.9660    0.7581    0.0000 C.2     1  UNL1       -0.0805
     13 C           2.5000    0.8581    0.0000 C.3     1  UNL1       -0.0520
     14 C           4.3660    2.3581    0.0000 C.3     1  UNL1       -0.0552
     15 C           4.8247   -2.3581    0.0000 C.3     1  UNL1       -0.0616
     16 C           3.0000    1.7241    0.0000 C.2     1  UNL1        0.1273
     17 H           2.9333    0.1095    0.0000 H       1  UNL1        0.0319
     18 H           3.9339   -2.1923    0.0000 H       1  UNL1        0.0307
     19 H           5.4441   -0.7246    0.0000 H       1  UNL1        0.0274
     20 H           5.8426   -0.0343    0.0000 H       1  UNL1        0.0274
     21 H           2.3976   -0.3082    0.0000 H       1  UNL1        0.0269
     22 H           2.2265   -1.1198    0.0000 H       1  UNL1        0.0269
     23 H           5.8426    0.7504    0.0000 H       1  UNL1        0.0274
     24 H           5.4441    1.4407    0.0000 H       1  UNL1        0.0274
     25 H           2.5785   -1.9086    0.0000 H       1  UNL1        0.0268
     26 H           3.2968   -2.3233    0.0000 H       1  UNL1        0.0268
     27 H           3.3726   -0.2216    0.0000 H       1  UNL1        0.0575
     28 H           3.3726    0.9377    0.0000 H       1  UNL1        0.0575
     29 H           2.5000    1.4781    0.0000 H       1  UNL1        0.0239
     30 H           1.8800    0.8581    0.0000 H       1  UNL1        0.0239
     31 H           2.5000    0.2381    0.0000 H       1  UNL1        0.0239
     32 H           4.9860    2.3581    0.0000 H       1  UNL1        0.0238
     33 H           4.3660    2.9781    0.0000 H       1  UNL1        0.0238
     34 H           3.7460    2.3581    0.0000 H       1  UNL1        0.0238
     35 H           4.3632   -2.7721    0.0000 H       1  UNL1        0.0233
     36 H           5.2387   -2.8195    0.0000 H       1  UNL1        0.0233
     37 H           5.2861   -1.9440    0.0000 H       1  UNL1        0.0233
     38 H           3.3100    2.2610    0.0000 H       1  UNL1        0.1032
@<TRIPOS>BOND
     1     1    16    2
     2     2     3    1
     3     2     6    1
     4     2     7    1
     5     2    11    1
     6     3     4    1
     7     3     8    1
     8     3    17    1
     9     4     5    1
    10     4    13    1
    11     4    16    1
    12     5     9    1
    13     5    12    1
    14     5    14    1
    15     6    10    1
    16     6    15    1
    17     6    18    1
    18     7     9    1
    19     7    19    1
    20     7    20    1
    21     8    10    1
    22     8    21    1
    23     8    22    1
    24     9    23    1
    25     9    24    1
    26    10    25    1
    27    10    26    1
    28    11    12    2
    29    11    27    1
    30    12    28    1
    31    13    29    1
    32    13    30    1
    33    13    31    1
    34    14    32    1
    35    14    33    1
    36    14    34    1
    37    15    35    1
    38    15    36    1
    39    15    37    1
    40    16    38    1
