@<TRIPOS>MOLECULE
IMPHY009300
 47 49 0 0 0
SMALL
GASTEIGER

@<TRIPOS>ATOM
      1 O           2.0000    0.8691    0.0000 O.3     1  UNL1       -0.4914
      2 O           2.0000    2.8691    0.0000 O.3     1  UNL1       -0.5033
      3 O           7.1777   -3.1853    0.0000 O.3     1  UNL1       -0.5033
      4 O           8.9212   -2.2054    0.0000 O.3     1  UNL1       -0.4915
      5 N           6.3981    1.3483    0.0000 N.3     1  UNL1       -0.2978
      6 C           5.4920    0.8344    0.0000 C.3     1  UNL1        0.0397
      7 C           4.5981    1.3691    0.0000 C.ar    1  UNL1       -0.0231
      8 C           6.3981    2.3899    0.0000 C.3     1  UNL1        0.0032
      9 C           5.4920    2.9038    0.0000 C.3     1  UNL1       -0.0144
     10 C           4.5981    2.3691    0.0000 C.ar    1  UNL1       -0.0378
     11 C           5.4804   -0.1655    0.0000 C.3     1  UNL1       -0.0078
     12 C           7.2622    0.8449    0.0000 C.3     1  UNL1       -0.0122
     13 C           3.7320    0.8691    0.0000 C.ar    1  UNL1       -0.0114
     14 C           6.3406   -0.6755    0.0000 C.ar    1  UNL1       -0.0419
     15 C           3.7320    2.8691    0.0000 C.ar    1  UNL1       -0.0130
     16 C           2.8660    1.3691    0.0000 C.ar    1  UNL1        0.1616
     17 C           2.8660    2.3691    0.0000 C.ar    1  UNL1        0.1587
     18 C           6.3291   -1.6754    0.0000 C.ar    1  UNL1       -0.0133
     19 C           7.2124   -0.1855    0.0000 C.ar    1  UNL1       -0.0548
     20 C           7.1893   -2.1854    0.0000 C.ar    1  UNL1        0.1587
     21 C           8.0726   -0.6955    0.0000 C.ar    1  UNL1       -0.0161
     22 C           8.0610   -1.6954    0.0000 C.ar    1  UNL1        0.1613
     23 C           2.0000   -0.1309    0.0000 C.3     1  UNL1        0.0790
     24 C           9.7930   -1.7155    0.0000 C.3     1  UNL1        0.0790
     25 H           6.0259    0.5193    0.0000 H       1  UNL1        0.0515
     26 H           7.0089    2.2838    0.0000 H       1  UNL1        0.0430
     27 H           6.6071    2.9736    0.0000 H       1  UNL1        0.0430
     28 H           5.8856    3.3828    0.0000 H       1  UNL1        0.0326
     29 H           5.0874    3.3736    0.0000 H       1  UNL1        0.0326
     30 H           4.8712   -0.0508    0.0000 H       1  UNL1        0.0332
     31 H           5.2617   -0.7456    0.0000 H       1  UNL1        0.0332
     32 H           6.9501    0.3092    0.0000 H       1  UNL1        0.0391
     33 H           7.7979    0.5329    0.0000 H       1  UNL1        0.0391
     34 H           7.5742    1.3807    0.0000 H       1  UNL1        0.0391
     35 H           3.7320    0.2491    0.0000 H       1  UNL1        0.0659
     36 H           3.7320    3.4891    0.0000 H       1  UNL1        0.0658
     37 H           5.7886   -1.9792    0.0000 H       1  UNL1        0.0658
     38 H           7.2196    0.4344    0.0000 H       1  UNL1        0.0621
     39 H           8.6131   -0.3917    0.0000 H       1  UNL1        0.0655
     40 H           2.0000    3.4891    0.0000 H       1  UNL1        0.2923
     41 H           1.3800   -0.1309    0.0000 H       1  UNL1        0.0660
     42 H           2.0000   -0.7509    0.0000 H       1  UNL1        0.0660
     43 H           2.6200   -0.1309    0.0000 H       1  UNL1        0.0660
     44 H           6.6372   -3.4891    0.0000 H       1  UNL1        0.2923
     45 H          10.0967   -2.2560    0.0000 H       1  UNL1        0.0660
     46 H          10.3334   -1.4117    0.0000 H       1  UNL1        0.0660
     47 H           9.4892   -1.1750    0.0000 H       1  UNL1        0.0660
@<TRIPOS>BOND
     1     1    16    1
     2     1    23    1
     3     2    17    1
     4     2    40    1
     5     3    20    1
     6     3    44    1
     7     4    22    1
     8     4    24    1
     9     5     6    1
    10     5     8    1
    11     5    12    1
    12     6     7    1
    13     6    11    1
    14     6    25    1
    15     7    10   ar
    16     7    13   ar
    17     8     9    1
    18     8    26    1
    19     8    27    1
    20     9    10    1
    21     9    28    1
    22     9    29    1
    23    10    15   ar
    24    11    14    1
    25    11    30    1
    26    11    31    1
    27    12    32    1
    28    12    33    1
    29    12    34    1
    30    13    16   ar
    31    13    35    1
    32    14    18   ar
    33    14    19   ar
    34    15    17   ar
    35    15    36    1
    36    16    17   ar
    37    18    20   ar
    38    18    37    1
    39    19    21   ar
    40    19    38    1
    41    20    22   ar
    42    21    22   ar
    43    21    39    1
    44    23    41    1
    45    23    42    1
    46    23    43    1
    47    24    45    1
    48    24    46    1
    49    24    47    1
