@<TRIPOS>MOLECULE
IMPHY000462
 27 29 0 0 0
SMALL
GASTEIGER

@<TRIPOS>ATOM
      1 C           3.9104    3.5027    0.0000 C.3     1  UNL1        0.0123
      2 C           3.0475    3.0001    0.0000 C.3     1  UNL1        0.0852
      3 C           4.7771    3.0001    0.0000 C.3     1  UNL1        0.0433
      4 C           3.9104    4.5059    0.0000 C.3     1  UNL1        0.0006
      5 C           3.9104    2.5033    0.0000 C.3     1  UNL1        0.0006
      6 C           3.0475    2.0045    0.0000 C.3     1  UNL1        0.1309
      7 C           2.1847    3.4951    0.0000 C.2     1  UNL1        0.1553
      8 C           4.7771    1.9988    0.0000 C.3     1  UNL1        0.2012
      9 C           5.6532    3.5008    0.0000 C.3     1  UNL1        0.0034
     10 C           4.7828    5.0065    0.0000 C.3     1  UNL1        0.0000
     11 C           3.9142    1.5001    0.0000 C.3     1  UNL1        0.2165
     12 O           2.1866    1.5001    0.0000 O.3     1  UNL1       -0.3558
     13 C           3.0494    1.0032    0.0000 C.3     1  UNL1        0.0328
     14 C           1.3256    2.9963    0.0000 C.3     1  UNL1        0.0959
     15 O           2.1809    4.4945    0.0000 O.2     1  UNL1       -0.2959
     16 O           5.6437    1.4982    0.0000 O.3     1  UNL1       -0.4495
     17 C           5.6532    4.5040    0.0000 C.3     1  UNL1        0.0001
     18 C           5.9908    2.5602    0.0000 C.3     1  UNL1        0.0001
     19 C           6.6375    3.6734    0.0000 C.3     1  UNL1        0.0001
     20 O           3.9123    0.5007    0.0000 O.3     1  UNL1       -0.2167
     21 C           1.3256    1.9988    0.0000 C.3     1  UNL1        0.1181
     22 C           5.6418    0.4988    0.0000 C.2     1  UNL1        0.3175
     23 C           0.3395    2.1733    0.0000 C.2     1  UNL1        0.0006
     24 C           0.9823    1.0582    0.0000 C.3     1  UNL1        0.0346
     25 O           6.5085    0.0000    0.0000 O.2     1  UNL1       -0.2501
     26 C           4.7771    0.0000    0.0000 C.3     1  UNL1        0.1212
     27 C           0.0000    3.1120    0.0000 C.2     1  UNL1       -0.0025
@<TRIPOS>BOND
     1     1     2    1
     2     1     3    1
     3     1     4    1
     4     1     5    1
     5     2     6    1
     6     2     7    1
     7     3     8    1
     8     3     9    1
     9     4    10    1
    10     6    11    1
    11     6    12    1
    12     6    13    1
    13     7    14    1
    14     7    15    2
    15     8    11    1
    16     8    16    1
    17     9    17    1
    18     9    18    1
    19     9    19    1
    20    10    17    1
    21    11    20    1
    22    12    21    1
    23    14    21    1
    24    16    22    1
    25    21    23    1
    26    21    24    1
    27    22    25    2
    28    22    26    1
    29    23    27    2
