@<TRIPOS>MOLECULE
IMPHY002203
 48 52 0 0 0
SMALL
GASTEIGER

@<TRIPOS>ATOM
      1 O           8.0496    0.3178    0.0000 O.2     1  UNL1       -0.2895
      2 O           2.8022    0.4188    0.0000 O.3     1  UNL1       -0.4666
      3 O           3.8364    1.8082    0.0000 O.2     1  UNL1       -0.2487
      4 N           6.8203   -1.8251    0.0000 N.4     1  UNL1        0.2424
      5 N           5.4805    0.6268    0.0000 N.pl3   1  UNL1       -0.2980
      6 C           6.2895    0.0390    0.0000 C.3     1  UNL1        0.1461
      7 C           6.1966   -0.9985    0.0000 C.3     1  UNL1        0.0095
      8 C           5.2484   -1.4295    0.0000 C.3     1  UNL1        0.0017
      9 C           4.4057   -0.8172    0.0000 C.3     1  UNL1        0.0191
     10 C           7.2783   -0.2683    0.0000 C.3     1  UNL1        0.0216
     11 C           7.5466   -1.3964    0.0000 C.3     1  UNL1       -0.0286
     12 C           4.5225    0.2178    0.0000 C.3     1  UNL1        0.1287
     13 C           5.8465   -2.0629    0.0000 C.3     1  UNL1       -0.0093
     14 C           4.9214   -1.6767    0.0000 C.2     1  UNL1       -0.0238
     15 C           7.0986    0.6268    0.0000 C.2     1  UNL1        0.1939
     16 C           5.7895    1.5778    0.0000 C.ar    1  UNL1        0.0420
     17 C           6.7895    1.5778    0.0000 C.ar    1  UNL1        0.0408
     18 C           3.7204    0.8149    0.0000 C.2     1  UNL1        0.3281
     19 C           4.2674   -2.4332    0.0000 C.2     1  UNL1       -0.0825
     20 C           5.2549    2.4718    0.0000 C.ar    1  UNL1       -0.0399
     21 C           7.3242    2.4718    0.0000 C.ar    1  UNL1       -0.0494
     22 C           4.5955   -3.3778    0.0000 C.3     1  UNL1       -0.0464
     23 C           5.7687    3.3778    0.0000 C.ar    1  UNL1       -0.0600
     24 C           6.8104    3.3778    0.0000 C.ar    1  UNL1       -0.0610
     25 C           2.0000    1.0159    0.0000 C.3     1  UNL1        0.0817
     26 H           6.2691   -1.8454    0.0000 H       1  UNL1        0.0877
     27 H           7.1937   -2.3200    0.0000 H       1  UNL1        0.2040
     28 H           4.8035   -1.8613    0.0000 H       1  UNL1        0.0327
     29 H           5.5977   -1.9417    0.0000 H       1  UNL1        0.0327
     30 H           3.5750   -0.9977    0.0000 H       1  UNL1        0.0373
     31 H           7.8974   -0.2341    0.0000 H       1  UNL1        0.0344
     32 H           7.3545    0.3470    0.0000 H       1  UNL1        0.0344
     33 H           7.8069   -1.9591    0.0000 H       1  UNL1        0.0815
     34 H           8.1324   -1.1935    0.0000 H       1  UNL1        0.0815
     35 H           4.5956    0.8335    0.0000 H       1  UNL1        0.0622
     36 H           5.4436   -2.5341    0.0000 H       1  UNL1        0.0864
     37 H           6.1713   -2.5910    0.0000 H       1  UNL1        0.0864
     38 H           3.6585   -2.3166    0.0000 H       1  UNL1        0.0571
     39 H           4.6349    2.4646    0.0000 H       1  UNL1        0.0636
     40 H           7.9442    2.4646    0.0000 H       1  UNL1        0.0625
     41 H           4.0099   -3.5813    0.0000 H       1  UNL1        0.0272
     42 H           4.7990   -3.9635    0.0000 H       1  UNL1        0.0272
     43 H           5.1812   -3.1744    0.0000 H       1  UNL1        0.0272
     44 H           5.4566    3.9136    0.0000 H       1  UNL1        0.0618
     45 H           7.1224    3.9136    0.0000 H       1  UNL1        0.0618
     46 H           2.3702    1.5132    0.0000 H       1  UNL1        0.0661
     47 H           1.5027    1.3861    0.0000 H       1  UNL1        0.0661
     48 H           1.6298    0.5186    0.0000 H       1  UNL1        0.0661
@<TRIPOS>UNITY_ATOM_ATTR
4 1
charge 1
@<TRIPOS>BOND
     1     1    15    2
     2     2    18    1
     3     2    25    1
     4     3    18    2
     5     4     7    1
     6     4    11    1
     7     4    13    1
     8     4    27    1
     9     5     6    1
    10     5    12    1
    11     5    16    1
    12     6     7    1
    13     6    10    1
    14     6    15    1
    15     7     8    1
    16     7    26    1
    17     8     9    1
    18     8    28    1
    19     8    29    1
    20     9    12    1
    21     9    14    1
    22     9    30    1
    23    10    11    1
    24    10    31    1
    25    10    32    1
    26    11    33    1
    27    11    34    1
    28    12    18    1
    29    12    35    1
    30    13    14    1
    31    13    36    1
    32    13    37    1
    33    14    19    2
    34    15    17    1
    35    16    17   ar
    36    16    20   ar
    37    17    21   ar
    38    19    22    1
    39    19    38    1
    40    20    23   ar
    41    20    39    1
    42    21    24   ar
    43    21    40    1
    44    22    41    1
    45    22    42    1
    46    22    43    1
    47    23    24   ar
    48    23    44    1
    49    24    45    1
    50    25    46    1
    51    25    47    1
    52    25    48    1
