@<TRIPOS>MOLECULE
IMPHY017218
 46 45 0 0 0
SMALL
GASTEIGER

@<TRIPOS>ATOM
      1 O           3.7320    0.4400    0.0000 O.3     1  UNL1       -0.4338
      2 O           2.8660   -1.0600    0.0000 O.2     1  UNL1       -0.2508
      3 C          11.5263   -0.0600    0.0000 C.3     1  UNL1       -0.0531
      4 C          12.3923    0.4400    0.0000 C.3     1  UNL1       -0.0531
      5 C          10.6603    0.4400    0.0000 C.3     1  UNL1       -0.0530
      6 C          13.2583   -0.0600    0.0000 C.3     1  UNL1       -0.0531
      7 C           9.7942   -0.0600    0.0000 C.3     1  UNL1       -0.0528
      8 C          14.1244    0.4400    0.0000 C.3     1  UNL1       -0.0533
      9 C           8.9282    0.4400    0.0000 C.3     1  UNL1       -0.0496
     10 C          14.9904   -0.0600    0.0000 C.3     1  UNL1       -0.0559
     11 C           8.0622   -0.0600    0.0000 C.3     1  UNL1       -0.0345
     12 C          15.8564    0.4400    0.0000 C.3     1  UNL1       -0.0653
     13 C           7.1962    0.4400    0.0000 C.2     1  UNL1       -0.0839
     14 C           6.3301   -0.0600    0.0000 C.2     1  UNL1       -0.0628
     15 C           5.4641    0.4400    0.0000 C.2     1  UNL1       -0.0270
     16 C           4.5981   -0.0600    0.0000 C.2     1  UNL1        0.0956
     17 C           2.8660   -0.0600    0.0000 C.2     1  UNL1        0.3086
     18 C           2.0000    0.4400    0.0000 C.3     1  UNL1        0.0336
     19 H          11.1278   -0.5349    0.0000 H       1  UNL1        0.0265
     20 H          11.9248   -0.5349    0.0000 H       1  UNL1        0.0265
     21 H          12.7908    0.9149    0.0000 H       1  UNL1        0.0265
     22 H          11.9938    0.9149    0.0000 H       1  UNL1        0.0265
     23 H          11.0588    0.9149    0.0000 H       1  UNL1        0.0265
     24 H          10.2617    0.9149    0.0000 H       1  UNL1        0.0265
     25 H          12.8598   -0.5349    0.0000 H       1  UNL1        0.0265
     26 H          13.6569   -0.5349    0.0000 H       1  UNL1        0.0265
     27 H           9.3957   -0.5349    0.0000 H       1  UNL1        0.0265
     28 H          10.1928   -0.5349    0.0000 H       1  UNL1        0.0265
     29 H          14.5229    0.9149    0.0000 H       1  UNL1        0.0265
     30 H          13.7258    0.9149    0.0000 H       1  UNL1        0.0265
     31 H           9.3267    0.9149    0.0000 H       1  UNL1        0.0268
     32 H           8.5297    0.9149    0.0000 H       1  UNL1        0.0268
     33 H          14.5919   -0.5349    0.0000 H       1  UNL1        0.0263
     34 H          15.3889   -0.5349    0.0000 H       1  UNL1        0.0263
     35 H           7.6636   -0.5349    0.0000 H       1  UNL1        0.0307
     36 H           8.4607   -0.5349    0.0000 H       1  UNL1        0.0307
     37 H          16.1664   -0.0969    0.0000 H       1  UNL1        0.0230
     38 H          16.3933    0.7500    0.0000 H       1  UNL1        0.0230
     39 H          15.5464    0.9769    0.0000 H       1  UNL1        0.0230
     40 H           7.1962    1.0600    0.0000 H       1  UNL1        0.0572
     41 H           6.3301   -0.6800    0.0000 H       1  UNL1        0.0615
     42 H           5.4641    1.0600    0.0000 H       1  UNL1        0.0648
     43 H           4.5981   -0.6800    0.0000 H       1  UNL1        0.1030
     44 H           2.3100    0.9769    0.0000 H       1  UNL1        0.0342
     45 H           1.4631    0.7500    0.0000 H       1  UNL1        0.0342
     46 H           1.6900   -0.0969    0.0000 H       1  UNL1        0.0342
@<TRIPOS>BOND
     1     1    16    1
     2     1    17    1
     3     2    17    2
     4     3     4    1
     5     3     5    1
     6     3    19    1
     7     3    20    1
     8     4     6    1
     9     4    21    1
    10     4    22    1
    11     5     7    1
    12     5    23    1
    13     5    24    1
    14     6     8    1
    15     6    25    1
    16     6    26    1
    17     7     9    1
    18     7    27    1
    19     7    28    1
    20     8    10    1
    21     8    29    1
    22     8    30    1
    23     9    11    1
    24     9    31    1
    25     9    32    1
    26    10    12    1
    27    10    33    1
    28    10    34    1
    29    11    13    1
    30    11    35    1
    31    11    36    1
    32    12    37    1
    33    12    38    1
    34    12    39    1
    35    13    14    2
    36    13    40    1
    37    14    15    1
    38    14    41    1
    39    15    16    2
    40    15    42    1
    41    16    43    1
    42    17    18    1
    43    18    44    1
    44    18    45    1
    45    18    46    1
