@<TRIPOS>MOLECULE
IMPHY007084
 20 20 0 0 0
SMALL
GASTEIGER

@<TRIPOS>ATOM
      1 O           2.8660   -1.4050    0.0000 O.3     1  UNL1       -0.4914
      2 O           4.5981   -2.4050    0.0000 O.3     1  UNL1       -0.5033
      3 O           5.4641    2.0950    0.0000 O.3     1  UNL1       -0.4771
      4 O           3.7320    2.0950    0.0000 O.2     1  UNL1       -0.2451
      5 C           3.7320   -0.9050    0.0000 C.ar    1  UNL1        0.1620
      6 C           4.5981    0.5950    0.0000 C.ar    1  UNL1        0.0625
      7 C           3.7320    0.0950    0.0000 C.ar    1  UNL1       -0.0023
      8 C           4.5981   -1.4050    0.0000 C.ar    1  UNL1        0.1585
      9 C           5.4641    0.0950    0.0000 C.ar    1  UNL1       -0.0441
     10 C           5.4641   -0.9050    0.0000 C.ar    1  UNL1       -0.0157
     11 C           4.5981    1.5950    0.0000 C.2     1  UNL1        0.3369
     12 C           2.0000   -0.9050    0.0000 C.3     1  UNL1        0.0790
     13 H           3.1951    0.4050    0.0000 H       1  UNL1        0.0663
     14 H           6.0010    0.4050    0.0000 H       1  UNL1        0.0627
     15 H           6.0010   -1.2150    0.0000 H       1  UNL1        0.0655
     16 H           2.3100   -0.3681    0.0000 H       1  UNL1        0.0660
     17 H           1.4631   -0.5950    0.0000 H       1  UNL1        0.0660
     18 H           1.6900   -1.4419    0.0000 H       1  UNL1        0.0660
     19 H           5.1350   -2.7150    0.0000 H       1  UNL1        0.2923
     20 H           5.4641    2.7150    0.0000 H       1  UNL1        0.2954
@<TRIPOS>BOND
     1     1     5    1
     2     1    12    1
     3     2     8    1
     4     2    19    1
     5     3    11    1
     6     3    20    1
     7     4    11    2
     8     5     7   ar
     9     5     8   ar
    10     6     7   ar
    11     6     9   ar
    12     6    11    1
    13     7    13    1
    14     8    10   ar
    15     9    10   ar
    16     9    14    1
    17    10    15    1
    18    12    16    1
    19    12    17    1
    20    12    18    1
