@<TRIPOS>MOLECULE
IMPHY001754
 40 42 0 0 0
SMALL
GASTEIGER

@<TRIPOS>ATOM
      1 O           2.6045    0.1429    0.0000 O.3     1  UNL1       -0.3947
      2 C           5.3830   -0.7554    0.0000 C.3     1  UNL1       -0.0051
      3 C           4.4821   -0.3215    0.0000 C.3     1  UNL1       -0.0260
      4 C           5.8830    1.4352    0.0000 C.3     1  UNL1       -0.0347
      5 C           4.8830    1.4352    0.0000 C.3     1  UNL1       -0.0269
      6 C           4.2596    0.6534    0.0000 C.3     1  UNL1       -0.0088
      7 C           5.2762    0.4214    0.0000 C.3     1  UNL1       -0.0401
      8 C           6.2840   -0.3215    0.0000 C.3     1  UNL1       -0.0431
      9 C           6.5065    0.6534    0.0000 C.3     1  UNL1       -0.0489
     10 C           3.7970   -1.0418    0.0000 C.3     1  UNL1       -0.0454
     11 C           5.2470   -1.7401    0.0000 C.2     1  UNL1       -0.0702
     12 C           4.2688   -1.9168    0.0000 C.3     1  UNL1       -0.0312
     13 C           4.9578    2.4324    0.0000 C.3     1  UNL1       -0.0592
     14 C           4.0568    1.9986    0.0000 C.3     1  UNL1       -0.0592
     15 C           3.2846    0.8759    0.0000 C.3     1  UNL1        0.0478
     16 C           5.9686   -2.4324    0.0000 C.2     1  UNL1       -0.0989
     17 H           3.8842   -0.1574    0.0000 H       1  UNL1        0.0313
     18 H           6.1520    1.9938    0.0000 H       1  UNL1        0.0306
     19 H           4.0548    1.2386    0.0000 H       1  UNL1        0.0331
     20 H           4.8684    0.8884    0.0000 H       1  UNL1        0.0277
     21 H           4.7062    0.1775    0.0000 H       1  UNL1        0.0277
     22 H           6.4220   -0.9260    0.0000 H       1  UNL1        0.0274
     23 H           6.9040   -0.3215    0.0000 H       1  UNL1        0.0274
     24 H           7.0651    0.3844    0.0000 H       1  UNL1        0.0268
     25 H           6.8931    1.1382    0.0000 H       1  UNL1        0.0268
     26 H           3.3951   -0.5697    0.0000 H       1  UNL1        0.0271
     27 H           3.2852   -1.3918    0.0000 H       1  UNL1        0.0271
     28 H           3.6952   -2.1521    0.0000 H       1  UNL1        0.0310
     29 H           4.4425   -2.5120    0.0000 H       1  UNL1        0.0310
     30 H           5.5760    2.3861    0.0000 H       1  UNL1        0.0235
     31 H           5.0041    3.0507    0.0000 H       1  UNL1        0.0235
     32 H           4.3395    2.4788    0.0000 H       1  UNL1        0.0235
     33 H           4.4061    2.5108    0.0000 H       1  UNL1        0.0235
     34 H           3.5445    2.3478    0.0000 H       1  UNL1        0.0235
     35 H           3.7076    1.4863    0.0000 H       1  UNL1        0.0235
     36 H           3.5255    1.4472    0.0000 H       1  UNL1        0.0560
     37 H           2.7638    1.2123    0.0000 H       1  UNL1        0.0560
     38 H           5.8206   -3.0345    0.0000 H       1  UNL1        0.0535
     39 H           6.5641   -2.2596    0.0000 H       1  UNL1        0.0535
     40 H           2.0000    0.2808    0.0000 H       1  UNL1        0.2094
@<TRIPOS>BOND
     1     1    15    1
     2     1    40    1
     3     2     3    1
     4     2     7    1
     5     2     8    1
     6     2    11    1
     7     3     6    1
     8     3    10    1
     9     3    17    1
    10     4     5    1
    11     4     7    1
    12     4     9    1
    13     4    18    1
    14     5     6    1
    15     5    13    1
    16     5    14    1
    17     6    15    1
    18     6    19    1
    19     7    20    1
    20     7    21    1
    21     8     9    1
    22     8    22    1
    23     8    23    1
    24     9    24    1
    25     9    25    1
    26    10    12    1
    27    10    26    1
    28    10    27    1
    29    11    12    1
    30    11    16    2
    31    12    28    1
    32    12    29    1
    33    13    30    1
    34    13    31    1
    35    13    32    1
    36    14    33    1
    37    14    34    1
    38    14    35    1
    39    15    36    1
    40    15    37    1
    41    16    38    1
    42    16    39    1
