@<TRIPOS>MOLECULE
IMPHY005049
 44 46 0 0 0
SMALL
GASTEIGER

@<TRIPOS>ATOM
      1 O           6.0682    0.5746    0.0000 O.2     1  UNL1       -0.4507
      2 O           7.8003    2.5746    0.0000 O.3     1  UNL1       -0.5007
      3 O          10.3984   -0.9254    0.0000 O.3     1  UNL1       -0.5065
      4 O           4.3198    3.6092    0.0000 O.3     1  UNL1       -0.5058
      5 O           6.0682    3.5746    0.0000 O.2     1  UNL1       -0.2830
      6 O           2.5381    0.5505    0.0000 O.3     1  UNL1       -0.5065
      7 C           7.8003    0.5746    0.0000 C.ar    1  UNL1        0.0215
      8 C           8.6663   -0.9254    0.0000 C.ar    1  UNL1       -0.0016
      9 C           6.9343    1.0746    0.0000 C.ar    1  UNL1        0.1806
     10 C           7.8003   -0.4254    0.0000 C.ar    1  UNL1       -0.0440
     11 C           8.6663   -1.9254    0.0000 C.3     1  UNL1       -0.0058
     12 C           5.2022    2.0746    0.0000 C.ar    1  UNL1        0.1092
     13 C           5.2022    1.0746    0.0000 C.ar    1  UNL1        0.1465
     14 C           6.9343    2.0746    0.0000 C.ar    1  UNL1        0.2082
     15 C           9.5323   -0.4254    0.0000 C.ar    1  UNL1        0.1203
     16 C           8.6663    1.0746    0.0000 C.ar    1  UNL1       -0.0475
     17 C           6.0682    2.5746    0.0000 C.ar    1  UNL1        0.2379
     18 C           9.5323    0.5746    0.0000 C.ar    1  UNL1       -0.0192
     19 C           4.3083    2.6093    0.0000 C.ar    1  UNL1        0.1348
     20 C           7.8003   -2.4254    0.0000 C.2     1  UNL1       -0.0809
     21 C           4.3083    0.5399    0.0000 C.ar    1  UNL1        0.0231
     22 C           3.4022    1.0538    0.0000 C.ar    1  UNL1        0.1239
     23 C           3.4022    2.0954    0.0000 C.ar    1  UNL1        0.0223
     24 C           7.8003   -3.4254    0.0000 C.2     1  UNL1       -0.0793
     25 C           6.9343   -3.9254    0.0000 C.3     1  UNL1       -0.0440
     26 C           8.6663   -3.9254    0.0000 C.3     1  UNL1       -0.0440
     27 H           7.2634   -0.7354    0.0000 H       1  UNL1        0.0629
     28 H           8.8784   -2.5080    0.0000 H       1  UNL1        0.0357
     29 H           9.2769   -1.8177    0.0000 H       1  UNL1        0.0357
     30 H           8.6663    1.6946    0.0000 H       1  UNL1        0.0626
     31 H          10.0693    0.8846    0.0000 H       1  UNL1        0.0654
     32 H           7.2634   -2.1154    0.0000 H       1  UNL1        0.0575
     33 H           4.3154   -0.0800    0.0000 H       1  UNL1        0.0691
     34 H           2.8665    2.4075    0.0000 H       1  UNL1        0.0691
     35 H           6.6243   -3.3885    0.0000 H       1  UNL1        0.0274
     36 H           8.3563   -4.4623    0.0000 H       1  UNL1        0.0274
     37 H           9.2033   -4.2354    0.0000 H       1  UNL1        0.0274
     38 H           8.9763   -3.3885    0.0000 H       1  UNL1        0.0274
     39 H           6.3973   -4.2354    0.0000 H       1  UNL1        0.0274
     40 H           7.2443   -4.4623    0.0000 H       1  UNL1        0.0274
     41 H           7.8003    3.1946    0.0000 H       1  UNL1        0.2924
     42 H          10.9353   -0.6154    0.0000 H       1  UNL1        0.2921
     43 H           3.7865    3.9254    0.0000 H       1  UNL1        0.2922
     44 H           2.0000    0.8584    0.0000 H       1  UNL1        0.2921
@<TRIPOS>BOND
     1     1     9   ar
     2     1    13   ar
     3     2    14    1
     4     2    41    1
     5     3    15    1
     6     3    42    1
     7     4    19    1
     8     4    43    1
     9     5    17    2
    10     6    22    1
    11     6    44    1
    12     7     9    1
    13     7    10   ar
    14     7    16   ar
    15     8    10   ar
    16     8    11    1
    17     8    15   ar
    18     9    14   ar
    19    10    27    1
    20    11    20    1
    21    11    28    1
    22    11    29    1
    23    12    13   ar
    24    12    17   ar
    25    12    19   ar
    26    13    21   ar
    27    14    17   ar
    28    15    18   ar
    29    16    18   ar
    30    16    30    1
    31    18    31    1
    32    19    23   ar
    33    20    24    2
    34    20    32    1
    35    21    22   ar
    36    21    33    1
    37    22    23   ar
    38    23    34    1
    39    24    25    1
    40    24    26    1
    41    25    35    1
    42    25    39    1
    43    25    40    1
    44    26    36    1
    45    26    37    1
    46    26    38    1
