@<TRIPOS>MOLECULE
IMPHY009338
 80 83 0 0 0
SMALL
GASTEIGER

@<TRIPOS>ATOM
      1 O           4.6782   -3.5032    0.0000 O.3     1  UNL1       -0.4806
      2 O           3.1682   -2.6546    0.0000 O.2     1  UNL1       -0.2510
      3 C           5.5320    1.4953    0.0000 C.3     1  UNL1       -0.0194
      4 C           6.3981    1.9953    0.0000 C.3     1  UNL1       -0.0051
      5 C           5.5320    0.4953    0.0000 C.3     1  UNL1       -0.0255
      6 C           4.6381   -0.0394    0.0000 C.3     1  UNL1       -0.0215
      7 C           8.1741    2.0022    0.0000 C.3     1  UNL1       -0.0135
      8 C           8.1821    3.0438    0.0000 C.3     1  UNL1       -0.0255
      9 C           7.2641    1.4953    0.0000 C.2     1  UNL1       -0.0634
     10 C           6.3820    3.0368    0.0000 C.3     1  UNL1       -0.0429
     11 C           4.6381    2.0300    0.0000 C.3     1  UNL1       -0.0460
     12 C           7.2800    3.5646    0.0000 C.3     1  UNL1       -0.0463
     13 C           3.7320    0.4745    0.0000 C.3     1  UNL1       -0.0147
     14 C           6.3981   -0.0047    0.0000 C.3     1  UNL1       -0.0306
     15 C           3.7320    1.5161    0.0000 C.3     1  UNL1       -0.0455
     16 C           9.1009    1.4381    0.0000 C.3     1  UNL1       -0.0408
     17 C           5.1900    2.4350    0.0000 C.3     1  UNL1       -0.0585
     18 C           7.2641    0.4953    0.0000 C.2     1  UNL1       -0.0836
     19 C           9.1176    3.5935    0.0000 C.3     1  UNL1       -0.0466
     20 C           5.7553    2.7613    0.0000 C.3     1  UNL1       -0.0553
     21 C          10.0488    1.9660    0.0000 C.3     1  UNL1       -0.0343
     22 C           4.1482   -0.9111    0.0000 C.3     1  UNL1       -0.0367
     23 C          10.0572    3.0510    0.0000 C.3     1  UNL1       -0.0473
     24 C           5.1481   -0.8995    0.0000 C.3     1  UNL1       -0.0587
     25 C           8.1898    4.0437    0.0000 C.3     1  UNL1       -0.0590
     26 C           2.8680   -0.0288    0.0000 C.2     1  UNL1       -0.0761
     27 C          11.0488    1.9544    0.0000 C.3     1  UNL1       -0.0598
     28 C          10.5388    1.0943    0.0000 C.3     1  UNL1       -0.0598
     29 C           4.6581   -1.7713    0.0000 C.3     1  UNL1        0.0453
     30 C           2.0000    0.4678    0.0000 C.3     1  UNL1       -0.0438
     31 C           2.8718   -1.0288    0.0000 C.2     1  UNL1       -0.0994
     32 C           4.1682   -2.6430    0.0000 C.2     1  UNL1        0.3047
     33 H           5.5386   -0.3547    0.0000 H       1  UNL1        0.0315
     34 H           8.1577    1.1523    0.0000 H       1  UNL1        0.0351
     35 H           6.1640    3.6172    0.0000 H       1  UNL1        0.0274
     36 H           5.7729    2.9213    0.0000 H       1  UNL1        0.0274
     37 H           5.0427    2.4998    0.0000 H       1  UNL1        0.0271
     38 H           4.2445    2.5090    0.0000 H       1  UNL1        0.0271
     39 H           7.6774    4.0405    0.0000 H       1  UNL1        0.0271
     40 H           6.8791    4.0374    0.0000 H       1  UNL1        0.0271
     41 H           3.7356   -0.1455    0.0000 H       1  UNL1        0.0351
     42 H           5.9995   -0.4796    0.0000 H       1  UNL1        0.0310
     43 H           6.7966   -0.4796    0.0000 H       1  UNL1        0.0310
     44 H           3.5230    2.0998    0.0000 H       1  UNL1        0.0271
     45 H           3.1212    1.4100    0.0000 H       1  UNL1        0.0271
     46 H           8.6927    0.9714    0.0000 H       1  UNL1        0.0276
     47 H           9.4909    0.9560    0.0000 H       1  UNL1        0.0276
     48 H           5.7726    2.6470    0.0000 H       1  UNL1        0.0235
     49 H           4.9780    3.0176    0.0000 H       1  UNL1        0.0235
     50 H           4.6074    2.2229    0.0000 H       1  UNL1        0.0235
     51 H           7.8010    0.1853    0.0000 H       1  UNL1        0.0572
     52 H           9.5149    4.0694    0.0000 H       1  UNL1        0.0271
     53 H           8.7166    4.0664    0.0000 H       1  UNL1        0.0271
     54 H           6.2302    3.1599    0.0000 H       1  UNL1        0.0238
     55 H           5.3568    3.2363    0.0000 H       1  UNL1        0.0238
     56 H           5.2803    2.3628    0.0000 H       1  UNL1        0.0238
     57 H           3.6686   -0.5181    0.0000 H       1  UNL1        0.0276
     58 H           3.6778   -1.3151    0.0000 H       1  UNL1        0.0276
     59 H          10.6672    2.9402    0.0000 H       1  UNL1        0.0271
     60 H          10.2707    3.6330    0.0000 H       1  UNL1        0.0271
     61 H           4.6148   -1.2157    0.0000 H       1  UNL1        0.0235
     62 H           5.4643   -1.4329    0.0000 H       1  UNL1        0.0235
     63 H           5.6814   -0.5834    0.0000 H       1  UNL1        0.0235
     64 H           8.8098    4.0389    0.0000 H       1  UNL1        0.0235
     65 H           8.1946    4.6637    0.0000 H       1  UNL1        0.0235
     66 H           7.5699    4.0485    0.0000 H       1  UNL1        0.0235
     67 H          11.0416    1.3345    0.0000 H       1  UNL1        0.0235
     68 H          11.6687    1.9473    0.0000 H       1  UNL1        0.0235
     69 H          11.0559    2.5744    0.0000 H       1  UNL1        0.0235
     70 H           9.9983    0.7905    0.0000 H       1  UNL1        0.0235
     71 H          10.8425    0.5538    0.0000 H       1  UNL1        0.0235
     72 H          11.0793    1.3980    0.0000 H       1  UNL1        0.0235
     73 H           5.1377   -2.1643    0.0000 H       1  UNL1        0.0378
     74 H           5.1284   -1.3673    0.0000 H       1  UNL1        0.0378
     75 H           2.3079    1.0059    0.0000 H       1  UNL1        0.0274
     76 H           1.4619    0.7757    0.0000 H       1  UNL1        0.0274
     77 H           1.6921   -0.0703    0.0000 H       1  UNL1        0.0274
     78 H           2.3361   -1.3409    0.0000 H       1  UNL1        0.0534
     79 H           3.4099   -1.3368    0.0000 H       1  UNL1        0.0534
     80 H           4.3744   -4.0437    0.0000 H       1  UNL1        0.2951
@<TRIPOS>BOND
     1     1    32    1
     2     1    80    1
     3     2    32    2
     4     3     4    1
     5     3     5    1
     6     3    11    1
     7     3    17    1
     8     4     9    1
     9     4    10    1
    10     4    20    1
    11     5     6    1
    12     5    14    1
    13     5    33    1
    14     6    13    1
    15     6    22    1
    16     6    24    1
    17     7     8    1
    18     7     9    1
    19     7    16    1
    20     7    34    1
    21     8    12    1
    22     8    19    1
    23     8    25    1
    24     9    18    2
    25    10    12    1
    26    10    35    1
    27    10    36    1
    28    11    15    1
    29    11    37    1
    30    11    38    1
    31    12    39    1
    32    12    40    1
    33    13    15    1
    34    13    26    1
    35    13    41    1
    36    14    18    1
    37    14    42    1
    38    14    43    1
    39    15    44    1
    40    15    45    1
    41    16    21    1
    42    16    46    1
    43    16    47    1
    44    17    48    1
    45    17    49    1
    46    17    50    1
    47    18    51    1
    48    19    23    1
    49    19    52    1
    50    19    53    1
    51    20    54    1
    52    20    55    1
    53    20    56    1
    54    21    23    1
    55    21    27    1
    56    21    28    1
    57    22    29    1
    58    22    57    1
    59    22    58    1
    60    23    59    1
    61    23    60    1
    62    24    61    1
    63    24    62    1
    64    24    63    1
    65    25    64    1
    66    25    65    1
    67    25    66    1
    68    26    30    1
    69    26    31    2
    70    27    67    1
    71    27    68    1
    72    27    69    1
    73    28    70    1
    74    28    71    1
    75    28    72    1
    76    29    32    1
    77    29    73    1
    78    29    74    1
    79    30    75    1
    80    30    76    1
    81    30    77    1
    82    31    78    1
    83    31    79    1
