@<TRIPOS>MOLECULE
IMPHY008455
 85 90 0 0 0
SMALL
GASTEIGER

@<TRIPOS>ATOM
      1 O           9.5625   -1.7769    0.0000 O.3     1  UNL1       -0.3300
      2 O          10.9228    0.9867    0.0000 O.3     1  UNL1       -0.4532
      3 O          10.1306   -1.6712    0.0000 O.3     1  UNL1       -0.3853
      4 O          12.0972   -0.9423    0.0000 O.3     1  UNL1       -0.3818
      5 O          11.0713   -2.6166    0.0000 O.3     1  UNL1       -0.4287
      6 O           7.3180    0.0207    0.0000 O.3     1  UNL1       -0.4594
      7 O          10.9228    2.4009    0.0000 O.3     1  UNL1       -0.3675
      8 O           6.6108    1.2455    0.0000 O.3     1  UNL1       -0.3675
      9 O          11.5300    2.4526    0.0000 O.2     1  UNL1       -0.2466
     10 O          11.6676    3.1148    0.0000 O.2     1  UNL1       -0.5044
     11 O           6.0591    0.9867    0.0000 O.2     1  UNL1       -0.2467
     12 O           5.6089    1.4914    0.0000 O.2     1  UNL1       -0.5044
     13 O           5.0635    3.4658    0.0000 O.3     1  UNL1       -0.4479
     14 O          11.1527    5.0974    0.0000 O.2     1  UNL1       -0.5034
     15 O           9.5713   -3.4826    0.0000 O.2     1  UNL1       -0.2449
     16 O          13.5713   -5.2146    0.0000 O.3     1  UNL1       -0.5032
     17 O          10.5713   -6.9467    0.0000 O.3     1  UNL1       -0.5032
     18 O           6.4723    4.8854    0.0000 O.3     1  UNL1       -0.5008
     19 O          12.5713   -6.9467    0.0000 O.3     1  UNL1       -0.5009
     20 O           5.9472    6.8153    0.0000 O.3     1  UNL1       -0.5008
     21 O           4.0134    7.3255    0.0000 O.3     1  UNL1       -0.5032
     22 O           2.1628    4.2311    0.0000 O.3     1  UNL1       -0.4770
     23 O           3.3922    3.0110    0.0000 O.2     1  UNL1       -0.2450
     24 C          10.6640    0.0207    0.0000 C.3     1  UNL1        0.1629
     25 C           9.9569   -0.6864    0.0000 C.3     1  UNL1        0.1240
     26 C           8.9910   -0.9452    0.0000 C.3     1  UNL1        0.1260
     27 C          11.0986   -0.8901    0.0000 C.3     1  UNL1        0.1565
     28 C          10.5713   -1.7505    0.0000 C.3     1  UNL1        0.2352
     29 C           8.0251   -0.6864    0.0000 C.3     1  UNL1        0.1213
     30 C           9.9569    2.6597    0.0000 C.3     1  UNL1        0.2490
     31 C           7.3180    1.9526    0.0000 C.3     1  UNL1        0.2490
     32 C          10.6640    1.9526    0.0000 C.2     1  UNL1        0.3522
     33 C           8.9910    2.9185    0.0000 C.2     1  UNL1        0.0094
     34 C           8.0251    2.6597    0.0000 C.2     1  UNL1        0.0094
     35 C           7.0591    0.9867    0.0000 C.2     1  UNL1        0.3519
     36 C          10.7047    3.3848    0.0000 C.2     1  UNL1        0.1831
     37 C           6.3078    2.2066    0.0000 C.2     1  UNL1        0.1840
     38 C           8.7059    3.9204    0.0000 C.2     1  UNL1       -0.0509
     39 C           7.7710    3.6699    0.0000 C.2     1  UNL1       -0.0509
     40 C          10.4429    4.3930    0.0000 C.2     1  UNL1        0.1578
     41 C           6.0304    3.2107    0.0000 C.2     1  UNL1        0.1695
     42 C          10.5713   -3.4826    0.0000 C.2     1  UNL1        0.3417
     43 C           9.4368    4.6626    0.0000 C.2     1  UNL1       -0.0164
     44 C           6.7670    3.9472    0.0000 C.2     1  UNL1       -0.0155
     45 C          11.0713   -4.3486    0.0000 C.ar    1  UNL1        0.0662
     46 C          10.5713   -5.2146    0.0000 C.ar    1  UNL1       -0.0023
     47 C          12.0713   -4.3486    0.0000 C.ar    1  UNL1       -0.0023
     48 C           4.8010    4.4307    0.0000 C.ar    1  UNL1        0.1876
     49 C          12.5713   -5.2146    0.0000 C.ar    1  UNL1        0.1628
     50 C          11.0713   -6.0807    0.0000 C.ar    1  UNL1        0.1628
     51 C           3.8341    4.6858    0.0000 C.ar    1  UNL1        0.1083
     52 C          12.0713   -6.0807    0.0000 C.ar    1  UNL1        0.2006
     53 C           5.5054    5.1405    0.0000 C.ar    1  UNL1        0.2060
     54 C           3.5715    5.6507    0.0000 C.ar    1  UNL1        0.0013
     55 C           5.2428    6.1054    0.0000 C.ar    1  UNL1        0.2044
     56 C           4.2759    6.3605    0.0000 C.ar    1  UNL1        0.1630
     57 C           3.1297    3.9760    0.0000 C.2     1  UNL1        0.3406
     58 H           9.9279    0.4458    0.0000 H       1  UNL1        0.0790
     59 H          10.5482   -0.8728    0.0000 H       1  UNL1        0.0658
     60 H           8.5004   -1.6393    0.0000 H       1  UNL1        0.0659
     61 H          11.3873   -1.4387    0.0000 H       1  UNL1        0.0694
     62 H          10.2684   -2.2915    0.0000 H       1  UNL1        0.1086
     63 H           7.4632   -0.9484    0.0000 H       1  UNL1        0.0725
     64 H           8.3351   -0.1494    0.0000 H       1  UNL1        0.0725
     65 H          10.0229   -2.2817    0.0000 H       1  UNL1        0.2101
     66 H          12.3787   -1.4947    0.0000 H       1  UNL1        0.2102
     67 H           8.1052    4.0739    0.0000 H       1  UNL1        0.0623
     68 H           8.2145    4.1032    0.0000 H       1  UNL1        0.0623
     69 H          11.2785    1.8930    0.0000 H       1  UNL1        0.2118
     70 H           9.2740    5.2608    0.0000 H       1  UNL1        0.0655
     71 H           6.6088    4.5467    0.0000 H       1  UNL1        0.0655
     72 H           6.5568    0.6279    0.0000 H       1  UNL1        0.2118
     73 H          12.1110    3.5482    0.0000 H       1  UNL1        0.2920
     74 H           5.0082    1.6450    0.0000 H       1  UNL1        0.2920
     75 H          10.9946    5.6969    0.0000 H       1  UNL1        0.2923
     76 H           9.9513   -5.2146    0.0000 H       1  UNL1        0.0663
     77 H          12.3813   -3.8117    0.0000 H       1  UNL1        0.0663
     78 H           2.9720    5.8089    0.0000 H       1  UNL1        0.0665
     79 H          13.8813   -5.7516    0.0000 H       1  UNL1        0.2923
     80 H           9.9513   -6.9467    0.0000 H       1  UNL1        0.2923
     81 H           6.9090    5.3255    0.0000 H       1  UNL1        0.2924
     82 H          12.2613   -7.4836    0.0000 H       1  UNL1        0.2924
     83 H           5.7844    7.4135    0.0000 H       1  UNL1        0.2924
     84 H           3.4139    7.4836    0.0000 H       1  UNL1        0.2923
     85 H           2.0000    4.8293    0.0000 H       1  UNL1        0.2954
@<TRIPOS>BOND
     1     1    26    1
     2     1    28    1
     3     2    24    1
     4     2    32    1
     5    25     3    1
     6     3    65    1
     7    27     4    1
     8     4    66    1
     9    28     5    1
    10     5    42    1
    11     6    29    1
    12     6    35    1
    13     7    30    1
    14     7    69    1
    15     8    31    1
    16     8    72    1
    17     9    32    2
    18    10    36    1
    19    10    73    1
    20    11    35    2
    21    12    37    1
    22    12    74    1
    23    13    41    1
    24    13    48    1
    25    14    40    1
    26    14    75    1
    27    15    42    2
    28    16    49    1
    29    16    79    1
    30    17    50    1
    31    17    80    1
    32    18    53    1
    33    18    81    1
    34    19    52    1
    35    19    82    1
    36    20    55    1
    37    20    83    1
    38    21    56    1
    39    21    84    1
    40    22    57    1
    41    22    85    1
    42    23    57    2
    43    24    25    1
    44    24    27    1
    45    24    58    1
    46    25    26    1
    47    25    59    1
    48    26    29    1
    49    26    60    1
    50    27    28    1
    51    27    61    1
    52    28    62    1
    53    29    63    1
    54    29    64    1
    55    30    32    1
    56    30    33    1
    57    30    36    1
    58    31    34    1
    59    31    35    1
    60    31    37    1
    61    33    34    2
    62    33    38    1
    63    34    39    1
    64    36    40    2
    65    37    41    2
    66    38    43    2
    67    38    67    1
    68    39    44    2
    69    39    68    1
    70    40    43    1
    71    41    44    1
    72    42    45    1
    73    43    70    1
    74    44    71    1
    75    45    46   ar
    76    45    47   ar
    77    46    50   ar
    78    46    76    1
    79    47    49   ar
    80    47    77    1
    81    48    51   ar
    82    48    53   ar
    83    49    52   ar
    84    50    52   ar
    85    51    54   ar
    86    51    57    1
    87    53    55   ar
    88    54    56   ar
    89    54    78    1
    90    55    56   ar
