@<TRIPOS>MOLECULE
IMPHY004755
 39 41 0 0 0
SMALL
GASTEIGER

@<TRIPOS>ATOM
      1 O           6.3580   -1.0209    0.0000 O.2     1  UNL1       -0.4544
      2 O           4.5981    2.0137    0.0000 O.3     1  UNL1       -0.4905
      3 O           2.8660    1.0137    0.0000 O.3     1  UNL1       -0.4885
      4 O           2.8660   -0.9863    0.0000 O.3     1  UNL1       -0.4912
      5 O           6.3465    2.0483    0.0000 O.2     1  UNL1       -0.2869
      6 C           5.4641    0.5137    0.0000 C.ar    1  UNL1        0.1093
      7 C           5.4641   -0.4863    0.0000 C.ar    1  UNL1        0.1465
      8 C           4.5981    1.0137    0.0000 C.ar    1  UNL1        0.1795
      9 C           3.7320    0.5137    0.0000 C.ar    1  UNL1        0.2045
     10 C           7.2641   -0.5071    0.0000 C.ar    1  UNL1        0.1392
     11 C           4.5981   -0.9863    0.0000 C.ar    1  UNL1        0.0270
     12 C           6.3580    1.0484    0.0000 C.ar    1  UNL1        0.1967
     13 C           3.7320   -0.4863    0.0000 C.ar    1  UNL1        0.1687
     14 C           7.2641    0.5346    0.0000 C.ar    1  UNL1        0.0288
     15 C           8.1282   -1.0104    0.0000 C.ar    1  UNL1        0.0174
     16 C           8.1244   -2.0104    0.0000 C.ar    1  UNL1       -0.0511
     17 C           8.9962   -0.5138    0.0000 C.ar    1  UNL1       -0.0511
     18 C           8.9884   -2.5137    0.0000 C.ar    1  UNL1       -0.0611
     19 C           9.8602   -1.0171    0.0000 C.ar    1  UNL1       -0.0611
     20 C           3.7320    2.5137    0.0000 C.3     1  UNL1        0.0790
     21 C           9.8564   -2.0171    0.0000 C.ar    1  UNL1       -0.0617
     22 C           2.0000    0.5137    0.0000 C.3     1  UNL1        0.0791
     23 C           2.8660   -1.9863    0.0000 C.3     1  UNL1        0.0790
     24 H           4.5981   -1.6063    0.0000 H       1  UNL1        0.0692
     25 H           7.7998    0.8466    0.0000 H       1  UNL1        0.0693
     26 H           7.5862   -2.3183    0.0000 H       1  UNL1        0.0625
     27 H           8.9985    0.1062    0.0000 H       1  UNL1        0.0625
     28 H           8.9860   -3.1337    0.0000 H       1  UNL1        0.0618
     29 H          10.3984   -0.7092    0.0000 H       1  UNL1        0.0618
     30 H           4.0420    3.0507    0.0000 H       1  UNL1        0.0660
     31 H           3.1951    2.8237    0.0000 H       1  UNL1        0.0660
     32 H           3.4220    1.9768    0.0000 H       1  UNL1        0.0660
     33 H          10.3921   -2.3292    0.0000 H       1  UNL1        0.0618
     34 H           1.6900    1.0507    0.0000 H       1  UNL1        0.0660
     35 H           1.4631    0.2037    0.0000 H       1  UNL1        0.0660
     36 H           2.3100   -0.0232    0.0000 H       1  UNL1        0.0660
     37 H           2.2460   -1.9863    0.0000 H       1  UNL1        0.0660
     38 H           2.8660   -2.6063    0.0000 H       1  UNL1        0.0660
     39 H           3.4860   -1.9863    0.0000 H       1  UNL1        0.0660
@<TRIPOS>BOND
     1     1     7   ar
     2     1    10   ar
     3     2     8    1
     4     2    20    1
     5     3     9    1
     6     3    22    1
     7     4    13    1
     8     4    23    1
     9     5    12    2
    10     6     7   ar
    11     6     8   ar
    12     6    12   ar
    13     7    11   ar
    14     8     9   ar
    15     9    13   ar
    16    10    14   ar
    17    10    15    1
    18    11    13   ar
    19    11    24    1
    20    12    14   ar
    21    14    25    1
    22    15    16   ar
    23    15    17   ar
    24    16    18   ar
    25    16    26    1
    26    17    19   ar
    27    17    27    1
    28    18    21   ar
    29    18    28    1
    30    19    21   ar
    31    19    29    1
    32    20    30    1
    33    20    31    1
    34    20    32    1
    35    21    33    1
    36    22    34    1
    37    22    35    1
    38    22    36    1
    39    23    37    1
    40    23    38    1
    41    23    39    1
