@<TRIPOS>MOLECULE
IMPHY016491
 34 33 0 0 0
SMALL
GASTEIGER

@<TRIPOS>ATOM
      1 O           8.9282    1.2500    0.0000 O.2     1  UNL1       -0.2977
      2 C           4.5981   -0.2500    0.0000 C.3     1  UNL1       -0.0528
      3 C           3.7320    0.2500    0.0000 C.3     1  UNL1       -0.0507
      4 C           5.4641    0.2500    0.0000 C.3     1  UNL1       -0.0530
      5 C           2.8660   -0.2500    0.0000 C.3     1  UNL1       -0.0467
      6 C           6.3301   -0.2500    0.0000 C.3     1  UNL1       -0.0527
      7 C           7.1962    0.2500    0.0000 C.3     1  UNL1       -0.0464
      8 C           2.0000    0.2500    0.0000 C.3     1  UNL1       -0.0627
      9 C           2.8660   -1.2500    0.0000 C.3     1  UNL1       -0.0627
     10 C           8.0622   -0.2500    0.0000 C.3     1  UNL1        0.0055
     11 C           8.9282    0.2500    0.0000 C.2     1  UNL1        0.1303
     12 C           9.7942   -0.2500    0.0000 C.3     1  UNL1       -0.0061
     13 H           4.1996   -0.7249    0.0000 H       1  UNL1        0.0265
     14 H           4.9966   -0.7249    0.0000 H       1  UNL1        0.0265
     15 H           4.1306    0.7249    0.0000 H       1  UNL1        0.0268
     16 H           3.3335    0.7249    0.0000 H       1  UNL1        0.0268
     17 H           5.8626    0.7249    0.0000 H       1  UNL1        0.0265
     18 H           5.0656    0.7249    0.0000 H       1  UNL1        0.0265
     19 H           2.8660    0.3700    0.0000 H       1  UNL1        0.0295
     20 H           5.9316   -0.7249    0.0000 H       1  UNL1        0.0265
     21 H           6.7287   -0.7249    0.0000 H       1  UNL1        0.0265
     22 H           7.5947    0.7249    0.0000 H       1  UNL1        0.0269
     23 H           6.7976    0.7249    0.0000 H       1  UNL1        0.0269
     24 H           2.3100    0.7869    0.0000 H       1  UNL1        0.0232
     25 H           1.4631    0.5600    0.0000 H       1  UNL1        0.0232
     26 H           1.6900   -0.2869    0.0000 H       1  UNL1        0.0232
     27 H           2.2460   -1.2500    0.0000 H       1  UNL1        0.0232
     28 H           2.8660   -1.8700    0.0000 H       1  UNL1        0.0232
     29 H           3.4860   -1.2500    0.0000 H       1  UNL1        0.0232
     30 H           7.6636   -0.7249    0.0000 H       1  UNL1        0.0341
     31 H           8.4607   -0.7249    0.0000 H       1  UNL1        0.0341
     32 H           9.4842   -0.7869    0.0000 H       1  UNL1        0.0306
     33 H          10.3312   -0.5600    0.0000 H       1  UNL1        0.0306
     34 H          10.1042    0.2869    0.0000 H       1  UNL1        0.0306
@<TRIPOS>BOND
     1     1    11    2
     2     2     3    1
     3     2     4    1
     4     2    13    1
     5     2    14    1
     6     3     5    1
     7     3    15    1
     8     3    16    1
     9     4     6    1
    10     4    17    1
    11     4    18    1
    12     5     8    1
    13     5     9    1
    14     5    19    1
    15     6     7    1
    16     6    20    1
    17     6    21    1
    18     7    10    1
    19     7    22    1
    20     7    23    1
    21     8    24    1
    22     8    25    1
    23     8    26    1
    24     9    27    1
    25     9    28    1
    26     9    29    1
    27    10    11    1
    28    10    30    1
    29    10    31    1
    30    11    12    1
    31    12    32    1
    32    12    33    1
    33    12    34    1
