@<TRIPOS>MOLECULE
IMPHY005980
 99 101 0 0 0
SMALL
GASTEIGER

@<TRIPOS>ATOM
      1 O           6.0812   -4.3849    0.0000 O.3     1  UNL1       -0.3577
      2 O           2.5369   -4.5801    0.0000 O.3     1  UNL1       -0.3917
      3 O          22.6648    3.3481    0.0000 O.3     1  UNL1       -0.3914
      4 C           5.1350   -4.0801    0.0000 C.3     1  UNL1        0.0918
      5 C           4.2690   -2.5801    0.0000 C.3     1  UNL1       -0.0088
      6 C           5.1350   -3.0801    0.0000 C.2     1  UNL1       -0.0338
      7 C           4.2690   -4.5801    0.0000 C.3     1  UNL1        0.0061
      8 C           3.4030   -3.0801    0.0000 C.3     1  UNL1       -0.0178
      9 C           3.4030   -4.0801    0.0000 C.3     1  UNL1        0.0589
     10 C           6.0812   -2.7754    0.0000 C.2     1  UNL1       -0.0491
     11 C           6.6648   -3.5801    0.0000 C.3     1  UNL1        0.0994
     12 C           5.1350   -5.0801    0.0000 C.3     1  UNL1       -0.0318
     13 C           3.7690   -1.7141    0.0000 C.3     1  UNL1       -0.0559
     14 C           4.7690   -1.7141    0.0000 C.3     1  UNL1       -0.0559
     15 C           7.6648   -3.5801    0.0000 C.2     1  UNL1       -0.0404
     16 C           8.1648   -4.4462    0.0000 C.3     1  UNL1       -0.0408
     17 C           8.1648   -2.7141    0.0000 C.2     1  UNL1       -0.0600
     18 C          20.1648    2.4820    0.0000 C.3     1  UNL1       -0.0076
     19 C          21.1648    2.4820    0.0000 C.3     1  UNL1       -0.0174
     20 C          21.6648    3.3481    0.0000 C.3     1  UNL1        0.0597
     21 C          19.6648    3.3481    0.0000 C.2     1  UNL1       -0.0426
     22 C          21.1648    4.2141    0.0000 C.3     1  UNL1       -0.0053
     23 C          20.1648    4.2141    0.0000 C.2     1  UNL1       -0.0665
     24 C          20.1648    1.4820    0.0000 C.3     1  UNL1       -0.0557
     25 C          19.2988    1.9820    0.0000 C.3     1  UNL1       -0.0557
     26 C           9.1648   -2.7141    0.0000 C.2     1  UNL1       -0.0615
     27 C          18.6648    3.3481    0.0000 C.2     1  UNL1       -0.0579
     28 C          19.6648    5.0801    0.0000 C.3     1  UNL1       -0.0431
     29 C           9.6648   -1.8481    0.0000 C.2     1  UNL1       -0.0588
     30 C          18.1648    2.4820    0.0000 C.2     1  UNL1       -0.0586
     31 C          10.6648   -1.8481    0.0000 C.2     1  UNL1       -0.0504
     32 C          17.1648    2.4820    0.0000 C.2     1  UNL1       -0.0504
     33 C          11.1648   -2.7141    0.0000 C.3     1  UNL1       -0.0397
     34 C          11.1648   -0.9821    0.0000 C.2     1  UNL1       -0.0588
     35 C          16.6648    3.3481    0.0000 C.3     1  UNL1       -0.0397
     36 C          16.6648    1.6160    0.0000 C.2     1  UNL1       -0.0588
     37 C          12.1648   -0.9821    0.0000 C.2     1  UNL1       -0.0615
     38 C          15.6648    1.6160    0.0000 C.2     1  UNL1       -0.0613
     39 C          12.6648   -0.1160    0.0000 C.2     1  UNL1       -0.0615
     40 C          15.1648    0.7500    0.0000 C.2     1  UNL1       -0.0588
     41 C          14.1648    0.7500    0.0000 C.2     1  UNL1       -0.0504
     42 C          13.6648   -0.1160    0.0000 C.2     1  UNL1       -0.0588
     43 C          13.6648    1.6160    0.0000 C.3     1  UNL1       -0.0397
     44 H           3.8705   -5.0551    0.0000 H       1  UNL1        0.0321
     45 H           4.6675   -5.0551    0.0000 H       1  UNL1        0.0321
     46 H           3.1909   -2.4975    0.0000 H       1  UNL1        0.0298
     47 H           2.7924   -3.1878    0.0000 H       1  UNL1        0.0298
     48 H           3.4030   -4.7001    0.0000 H       1  UNL1        0.0594
     49 H           6.2738   -2.1861    0.0000 H       1  UNL1        0.0601
     50 H           6.9466   -4.1324    0.0000 H       1  UNL1        0.0688
     51 H           4.5150   -5.0801    0.0000 H       1  UNL1        0.0261
     52 H           5.1350   -5.7001    0.0000 H       1  UNL1        0.0261
     53 H           5.7550   -5.0801    0.0000 H       1  UNL1        0.0261
     54 H           4.3059   -1.4041    0.0000 H       1  UNL1        0.0238
     55 H           5.3059   -2.0241    0.0000 H       1  UNL1        0.0238
     56 H           5.0790   -1.1772    0.0000 H       1  UNL1        0.0238
     57 H           4.2320   -1.4041    0.0000 H       1  UNL1        0.0238
     58 H           3.4590   -1.1772    0.0000 H       1  UNL1        0.0238
     59 H           3.2320   -2.0241    0.0000 H       1  UNL1        0.0238
     60 H           2.0000   -4.2701    0.0000 H       1  UNL1        0.2098
     61 H           7.6279   -4.7562    0.0000 H       1  UNL1        0.0275
     62 H           8.4748   -4.9831    0.0000 H       1  UNL1        0.0275
     63 H           8.7018   -4.1362    0.0000 H       1  UNL1        0.0275
     64 H           7.8548   -2.1772    0.0000 H       1  UNL1        0.0618
     65 H          21.0572    1.8715    0.0000 H       1  UNL1        0.0298
     66 H          21.7474    2.2700    0.0000 H       1  UNL1        0.0298
     67 H          21.9748    2.8111    0.0000 H       1  UNL1        0.0596
     68 H          21.7474    4.4262    0.0000 H       1  UNL1        0.0335
     69 H          21.0572    4.8247    0.0000 H       1  UNL1        0.0335
     70 H          19.5448    1.4820    0.0000 H       1  UNL1        0.0238
     71 H          20.1648    0.8621    0.0000 H       1  UNL1        0.0238
     72 H          18.9888    2.5190    0.0000 H       1  UNL1        0.0238
     73 H          18.7619    1.6720    0.0000 H       1  UNL1        0.0238
     74 H          19.6088    1.4451    0.0000 H       1  UNL1        0.0238
     75 H          20.7848    1.4820    0.0000 H       1  UNL1        0.0238
     76 H           9.4748   -3.2510    0.0000 H       1  UNL1        0.0618
     77 H          18.3548    3.8850    0.0000 H       1  UNL1        0.0621
     78 H          20.2018    5.3901    0.0000 H       1  UNL1        0.0275
     79 H          19.3548    5.6171    0.0000 H       1  UNL1        0.0275
     80 H          19.1279    4.7701    0.0000 H       1  UNL1        0.0275
     81 H          22.9748    3.8850    0.0000 H       1  UNL1        0.2098
     82 H           9.3548   -1.3111    0.0000 H       1  UNL1        0.0620
     83 H          18.4748    1.9451    0.0000 H       1  UNL1        0.0620
     84 H          10.6279   -3.0241    0.0000 H       1  UNL1        0.0278
     85 H          11.4748   -3.2510    0.0000 H       1  UNL1        0.0278
     86 H          11.7018   -2.4041    0.0000 H       1  UNL1        0.0278
     87 H          10.8548   -0.4451    0.0000 H       1  UNL1        0.0620
     88 H          17.2018    3.6581    0.0000 H       1  UNL1        0.0278
     89 H          16.3548    3.8850    0.0000 H       1  UNL1        0.0278
     90 H          16.1279    3.0381    0.0000 H       1  UNL1        0.0278
     91 H          16.9748    1.0791    0.0000 H       1  UNL1        0.0620
     92 H          12.4748   -1.5190    0.0000 H       1  UNL1        0.0618
     93 H          15.3548    2.1530    0.0000 H       1  UNL1        0.0618
     94 H          15.4748    0.2131    0.0000 H       1  UNL1        0.0620
     95 H          12.3548    0.4209    0.0000 H       1  UNL1        0.0618
     96 H          13.9748   -0.6530    0.0000 H       1  UNL1        0.0620
     97 H          14.2018    1.9260    0.0000 H       1  UNL1        0.0278
     98 H          13.3548    2.1530    0.0000 H       1  UNL1        0.0278
     99 H          13.1279    1.3060    0.0000 H       1  UNL1        0.0278
@<TRIPOS>BOND
     1     1     4    1
     2     1    11    1
     3     2     9    1
     4     2    60    1
     5     3    20    1
     6     3    81    1
     7     4     6    1
     8     4     7    1
     9     4    12    1
    10     5     6    1
    11     5     8    1
    12     5    13    1
    13     5    14    1
    14     6    10    2
    15     7     9    1
    16     7    44    1
    17     7    45    1
    18     8     9    1
    19     8    46    1
    20     8    47    1
    21     9    48    1
    22    10    11    1
    23    10    49    1
    24    11    15    1
    25    11    50    1
    26    12    51    1
    27    12    52    1
    28    12    53    1
    29    13    54    1
    30    13    58    1
    31    13    59    1
    32    14    55    1
    33    14    56    1
    34    14    57    1
    35    15    16    1
    36    15    17    2
    37    16    61    1
    38    16    62    1
    39    16    63    1
    40    17    26    1
    41    17    64    1
    42    18    19    1
    43    18    21    1
    44    18    24    1
    45    18    25    1
    46    19    20    1
    47    19    65    1
    48    19    66    1
    49    20    22    1
    50    20    67    1
    51    21    23    2
    52    21    27    1
    53    22    23    1
    54    22    68    1
    55    22    69    1
    56    23    28    1
    57    24    70    1
    58    24    71    1
    59    24    75    1
    60    25    72    1
    61    25    73    1
    62    25    74    1
    63    26    29    2
    64    26    76    1
    65    27    30    2
    66    27    77    1
    67    28    78    1
    68    28    79    1
    69    28    80    1
    70    29    31    1
    71    29    82    1
    72    30    32    1
    73    30    83    1
    74    31    33    1
    75    31    34    2
    76    32    35    1
    77    32    36    2
    78    33    84    1
    79    33    85    1
    80    33    86    1
    81    34    37    1
    82    34    87    1
    83    35    88    1
    84    35    89    1
    85    35    90    1
    86    36    38    1
    87    36    91    1
    88    37    39    2
    89    37    92    1
    90    38    40    2
    91    38    93    1
    92    39    42    1
    93    39    95    1
    94    40    41    1
    95    40    94    1
    96    41    42    2
    97    41    43    1
    98    42    96    1
    99    43    97    1
   100    43    98    1
   101    43    99    1
