@<TRIPOS>MOLECULE
IMPHY006814
 74 78 0 0 0
SMALL
GASTEIGER

@<TRIPOS>ATOM
      1 O           5.9407   -1.8184    0.0000 O.3     1  UNL1       -0.3512
      2 O           8.6353   -2.3600    0.0000 O.3     1  UNL1       -0.4539
      3 O           5.1029   -2.3461    0.0000 O.2     1  UNL1       -0.2967
      4 O           3.8428    2.2465    0.0000 O.3     1  UNL1       -0.4604
      5 O           7.7294   -3.8808    0.0000 O.2     1  UNL1       -0.2478
      6 O           2.2143   -0.1304    0.0000 O.3     1  UNL1       -0.3888
      7 O          10.5562    0.4065    0.0000 O.2     1  UNL1       -0.4706
      8 O           6.6212    3.3037    0.0000 O.3     1  UNL1       -0.4805
      9 O           6.6012    1.5717    0.0000 O.2     1  UNL1       -0.2509
     10 O           4.9714    3.5603    0.0000 O.2     1  UNL1       -0.2512
     11 C           6.8513   -1.3116    0.0000 C.3     1  UNL1        0.1283
     12 C           5.9852   -0.8115    0.0000 C.3     1  UNL1        0.0622
     13 C           7.7173   -0.8115    0.0000 C.3     1  UNL1        0.0422
     14 C           5.9852    0.1885    0.0000 C.3     1  UNL1       -0.0170
     15 C           6.8352   -2.3531    0.0000 C.3     1  UNL1        0.1861
     16 C           5.0913    0.7231    0.0000 C.3     1  UNL1        0.0151
     17 C           7.7173    0.1885    0.0000 C.3     1  UNL1       -0.0408
     18 C           6.8513    0.6885    0.0000 C.3     1  UNL1       -0.0479
     19 C           4.1852    0.2093    0.0000 C.3     1  UNL1        0.0031
     20 C           8.6273   -1.3184    0.0000 C.3     1  UNL1        0.1391
     21 C           5.0913   -1.3462    0.0000 C.2     1  UNL1        0.1427
     22 C           6.6354   -1.9373    0.0000 C.3     1  UNL1       -0.0498
     23 C           4.1852   -0.8324    0.0000 C.3     1  UNL1        0.0125
     24 C           8.5833   -0.3115    0.0000 C.3     1  UNL1       -0.0531
     25 C           4.6014    1.5949    0.0000 C.3     1  UNL1        0.1190
     26 C           7.7332   -2.8808    0.0000 C.2     1  UNL1        0.3398
     27 C           5.6013    1.5833    0.0000 C.3     1  UNL1       -0.0555
     28 C           3.1998    0.0394    0.0000 C.3     1  UNL1        0.0643
     29 C           9.4875   -0.8084    0.0000 C.ar    1  UNL1        0.0310
     30 C           5.1113    2.4550    0.0000 C.3     1  UNL1        0.0823
     31 C           3.3696   -0.9460    0.0000 C.3     1  UNL1       -0.0360
     32 C           3.0299    1.0249    0.0000 C.3     1  UNL1       -0.0360
     33 C          10.4057   -1.2046    0.0000 C.ar    1  UNL1       -0.0172
     34 C           9.5805    0.1873    0.0000 C.ar    1  UNL1        0.0984
     35 C           6.1113    2.4435    0.0000 C.2     1  UNL1        0.3083
     36 C           4.0278    3.2292    0.0000 C.2     1  UNL1        0.3042
     37 C          11.0662   -0.4537    0.0000 C.ar    1  UNL1        0.0921
     38 C           3.2692    3.8808    0.0000 C.3     1  UNL1        0.0332
     39 H           5.9918    1.0384    0.0000 H       1  UNL1        0.0318
     40 H           6.4018   -3.0843    0.0000 H       1  UNL1        0.0743
     41 H           8.3279    0.0808    0.0000 H       1  UNL1        0.0273
     42 H           7.9294    0.7711    0.0000 H       1  UNL1        0.0273
     43 H           7.2498    1.1634    0.0000 H       1  UNL1        0.0269
     44 H           6.4527    1.1634    0.0000 H       1  UNL1        0.0269
     45 H           3.6376   -0.4408    0.0000 H       1  UNL1        0.0339
     46 H           9.1672   -1.6232    0.0000 H       1  UNL1        0.0793
     47 H           6.0984   -2.2474    0.0000 H       1  UNL1        0.0240
     48 H           6.9454   -2.4742    0.0000 H       1  UNL1        0.0240
     49 H           7.1723   -1.6273    0.0000 H       1  UNL1        0.0240
     50 H           3.5744   -0.7263    0.0000 H       1  UNL1        0.0346
     51 H           3.9762   -1.4160    0.0000 H       1  UNL1        0.0346
     52 H           8.8933   -0.8485    0.0000 H       1  UNL1        0.0237
     53 H           9.1203   -0.0015    0.0000 H       1  UNL1        0.0237
     54 H           8.2733    0.2254    0.0000 H       1  UNL1        0.0237
     55 H           4.1218    1.2018    0.0000 H       1  UNL1        0.0745
     56 H           6.1346    1.2671    0.0000 H       1  UNL1        0.0236
     57 H           5.9175    2.1166    0.0000 H       1  UNL1        0.0236
     58 H           5.0680    1.8995    0.0000 H       1  UNL1        0.0236
     59 H           5.2260    3.0643    0.0000 H       1  UNL1        0.0414
     60 H           4.5312    2.6738    0.0000 H       1  UNL1        0.0414
     61 H           2.7586   -1.0513    0.0000 H       1  UNL1        0.0257
     62 H           3.6409    1.1302    0.0000 H       1  UNL1        0.0257
     63 H           2.9246    1.6359    0.0000 H       1  UNL1        0.0257
     64 H           2.4189    0.9196    0.0000 H       1  UNL1        0.0257
     65 H           3.4748   -1.5570    0.0000 H       1  UNL1        0.0257
     66 H           3.9806   -0.8407    0.0000 H       1  UNL1        0.0257
     67 H           2.0000   -0.7122    0.0000 H       1  UNL1        0.2101
     68 H          10.5416   -1.8095    0.0000 H       1  UNL1        0.0653
     69 H           9.1150    0.5968    0.0000 H       1  UNL1        0.1033
     70 H          11.6835   -0.5114    0.0000 H       1  UNL1        0.1029
     71 H           3.6732    4.3511    0.0000 H       1  UNL1        0.0342
     72 H           2.7990    4.2848    0.0000 H       1  UNL1        0.0342
     73 H           2.8653    3.4105    0.0000 H       1  UNL1        0.0342
     74 H           7.2412    3.2965    0.0000 H       1  UNL1        0.2951
@<TRIPOS>BOND
     1    11     1    1
     2     1    15    1
     3     2    20    1
     4     2    26    1
     5     3    21    2
     6    25     4    1
     7     4    36    1
     8     5    26    2
     9     6    28    1
    10     6    67    1
    11     7    34   ar
    12     7    37   ar
    13     8    35    1
    14     8    74    1
    15     9    35    2
    16    10    36    2
    17    11    12    1
    18    11    13    1
    19    11    15    1
    20    12    14    1
    21    12    21    1
    22    12    22    1
    23    13    17    1
    24    13    20    1
    25    13    24    1
    26    14    16    1
    27    14    18    1
    28    14    39    1
    29    15    26    1
    30    15    40    1
    31    16    19    1
    32    16    25    1
    33    16    27    1
    34    17    18    1
    35    17    41    1
    36    17    42    1
    37    18    43    1
    38    18    44    1
    39    19    23    1
    40    19    28    1
    41    19    45    1
    42    20    29    1
    43    20    46    1
    44    21    23    1
    45    22    47    1
    46    22    48    1
    47    22    49    1
    48    23    50    1
    49    23    51    1
    50    24    52    1
    51    24    53    1
    52    24    54    1
    53    25    30    1
    54    25    55    1
    55    27    56    1
    56    27    57    1
    57    27    58    1
    58    28    31    1
    59    28    32    1
    60    29    33   ar
    61    29    34   ar
    62    30    35    1
    63    30    59    1
    64    30    60    1
    65    31    61    1
    66    31    65    1
    67    31    66    1
    68    32    62    1
    69    32    63    1
    70    32    64    1
    71    33    37   ar
    72    33    68    1
    73    34    69    1
    74    36    38    1
    75    37    70    1
    76    38    71    1
    77    38    72    1
    78    38    73    1
