@<TRIPOS>MOLECULE
IMPHY002901
 100 103 0 0 0
SMALL
GASTEIGER

@<TRIPOS>ATOM
      1 O          15.0389   -2.2949    0.0000 O.3     1  UNL1       -0.4536
      2 O          14.0939   -1.8334    0.0000 O.3     1  UNL1       -0.4569
      3 O          14.8210    0.7733    0.0000 O.3     1  UNL1       -0.3869
      4 O          16.7465    2.8780    0.0000 O.3     1  UNL1       -0.3797
      5 O          15.9229    3.8612    0.0000 O.2     1  UNL1       -0.2893
      6 O          16.0256   -3.7185    0.0000 O.2     1  UNL1       -0.2511
      7 O          19.4016    0.8038    0.0000 O.3     1  UNL1       -0.3907
      8 O          13.1237   -0.3986    0.0000 O.2     1  UNL1       -0.2508
      9 C          16.7168   -1.1319    0.0000 C.3     1  UNL1        0.0209
     10 C          15.8607   -1.7253    0.0000 C.3     1  UNL1        0.1598
     11 C          16.8030   -2.1704    0.0000 C.3     1  UNL1        0.0161
     12 C          16.6230   -0.0945    0.0000 C.3     1  UNL1        0.0145
     13 C          14.9223   -1.2733    0.0000 C.3     1  UNL1        0.1485
     14 C          15.7220    0.3394    0.0000 C.3     1  UNL1        0.0880
     15 C          14.8524   -0.2340    0.0000 C.3     1  UNL1        0.0272
     16 C          17.7996   -2.0880    0.0000 C.3     1  UNL1       -0.0556
     17 C          16.3760   -3.0747    0.0000 C.3     1  UNL1       -0.0556
     18 C          15.4995    1.3143    0.0000 C.3     1  UNL1        0.0439
     19 C          17.5239    0.3394    0.0000 C.2     1  UNL1       -0.0763
     20 C          16.1230    2.0962    0.0000 C.3     1  UNL1        0.1403
     21 C          13.8544   -0.2972    0.0000 C.3     1  UNL1       -0.0562
     22 C          17.7465    1.3143    0.0000 C.2     1  UNL1       -0.0449
     23 C          17.1230    2.0962    0.0000 C.3     1  UNL1        0.0073
     24 C          14.5697    1.6660    0.0000 C.2     1  UNL1       -0.0687
     25 C          15.5732    2.9244    0.0000 C.2     1  UNL1        0.1909
     26 C          15.1213   -3.2915    0.0000 C.2     1  UNL1        0.3046
     27 C          14.6152    2.6591    0.0000 C.2     1  UNL1       -0.0086
     28 C          13.1946   -1.3961    0.0000 C.2     1  UNL1        0.3075
     29 C          18.7214    1.5368    0.0000 C.3     1  UNL1        0.0654
     30 C          14.2994   -3.8612    0.0000 C.3     1  UNL1        0.0333
     31 C          13.8333    3.2826    0.0000 C.3     1  UNL1       -0.0366
     32 C          12.3662   -1.9562    0.0000 C.3     1  UNL1        0.0450
     33 C          11.4669   -1.5189    0.0000 C.3     1  UNL1       -0.0430
     34 C          10.6385   -2.0790    0.0000 C.3     1  UNL1       -0.0526
     35 C           9.7392   -1.6416    0.0000 C.3     1  UNL1       -0.0530
     36 C           8.9108   -2.2018    0.0000 C.3     1  UNL1       -0.0531
     37 C           8.0115   -1.7644    0.0000 C.3     1  UNL1       -0.0531
     38 C           7.1831   -2.3246    0.0000 C.3     1  UNL1       -0.0531
     39 C           6.2838   -1.8872    0.0000 C.3     1  UNL1       -0.0531
     40 C           5.4554   -2.4473    0.0000 C.3     1  UNL1       -0.0531
     41 C           4.5561   -2.0100    0.0000 C.3     1  UNL1       -0.0531
     42 C           3.7277   -2.5701    0.0000 C.3     1  UNL1       -0.0533
     43 C           2.8284   -2.1328    0.0000 C.3     1  UNL1       -0.0559
     44 C           2.0000   -2.6929    0.0000 C.3     1  UNL1       -0.0653
     45 H          17.5636   -1.0584    0.0000 H       1  UNL1        0.0354
     46 H          17.3624   -0.5138    0.0000 H       1  UNL1        0.0375
     47 H          14.3652   -1.0011    0.0000 H       1  UNL1        0.0778
     48 H          14.6556    0.3539    0.0000 H       1  UNL1        0.0363
     49 H          17.8507   -2.7059    0.0000 H       1  UNL1        0.0236
     50 H          18.4175   -2.0369    0.0000 H       1  UNL1        0.0236
     51 H          17.7485   -1.4701    0.0000 H       1  UNL1        0.0236
     52 H          15.8154   -2.8100    0.0000 H       1  UNL1        0.0236
     53 H          16.1114   -3.6354    0.0000 H       1  UNL1        0.0236
     54 H          16.9367   -3.3394    0.0000 H       1  UNL1        0.0236
     55 H          16.3282    1.1252    0.0000 H       1  UNL1        0.0404
     56 H          18.0087   -0.0472    0.0000 H       1  UNL1        0.0576
     57 H          13.8152    0.3215    0.0000 H       1  UNL1        0.0234
     58 H          13.2357   -0.3364    0.0000 H       1  UNL1        0.0234
     59 H          13.8936   -0.9160    0.0000 H       1  UNL1        0.0234
     60 H          14.2028    0.7270    0.0000 H       1  UNL1        0.2102
     61 H          17.6816    2.3652    0.0000 H       1  UNL1        0.0343
     62 H          16.9850    2.7006    0.0000 H       1  UNL1        0.0343
     63 H          14.0517    1.3254    0.0000 H       1  UNL1        0.0580
     64 H          17.3595    2.7856    0.0000 H       1  UNL1        0.2108
     65 H          19.2422    1.8732    0.0000 H       1  UNL1        0.0604
     66 H          18.4806    2.1082    0.0000 H       1  UNL1        0.0604
     67 H          13.9462   -3.3516    0.0000 H       1  UNL1        0.0342
     68 H          13.7898   -4.2144    0.0000 H       1  UNL1        0.0342
     69 H          14.6526   -4.3708    0.0000 H       1  UNL1        0.0342
     70 H          14.2199    3.7673    0.0000 H       1  UNL1        0.0279
     71 H          13.3486    3.6691    0.0000 H       1  UNL1        0.0279
     72 H          13.4468    2.7978    0.0000 H       1  UNL1        0.0279
     73 H          12.0023   -2.4582    0.0000 H       1  UNL1        0.0377
     74 H          12.7974   -2.4017    0.0000 H       1  UNL1        0.0377
     75 H          20.0060    0.9418    0.0000 H       1  UNL1        0.2098
     76 H          11.8307   -1.0169    0.0000 H       1  UNL1        0.0270
     77 H          11.0357   -1.0734    0.0000 H       1  UNL1        0.0270
     78 H          10.2746   -2.5810    0.0000 H       1  UNL1        0.0265
     79 H          11.0697   -2.5245    0.0000 H       1  UNL1        0.0265
     80 H          10.1030   -1.1396    0.0000 H       1  UNL1        0.0265
     81 H           9.3080   -1.1962    0.0000 H       1  UNL1        0.0265
     82 H           8.5469   -2.7038    0.0000 H       1  UNL1        0.0265
     83 H           9.3420   -2.6473    0.0000 H       1  UNL1        0.0265
     84 H           8.3753   -1.2624    0.0000 H       1  UNL1        0.0265
     85 H           7.5803   -1.3189    0.0000 H       1  UNL1        0.0265
     86 H           6.8192   -2.8266    0.0000 H       1  UNL1        0.0265
     87 H           7.6143   -2.7701    0.0000 H       1  UNL1        0.0265
     88 H           6.6476   -1.3852    0.0000 H       1  UNL1        0.0265
     89 H           5.8526   -1.4417    0.0000 H       1  UNL1        0.0265
     90 H           5.0915   -2.9493    0.0000 H       1  UNL1        0.0265
     91 H           5.8866   -2.8928    0.0000 H       1  UNL1        0.0265
     92 H           4.9200   -1.5080    0.0000 H       1  UNL1        0.0265
     93 H           4.1249   -1.5645    0.0000 H       1  UNL1        0.0265
     94 H           3.3638   -3.0721    0.0000 H       1  UNL1        0.0265
     95 H           4.1589   -3.0156    0.0000 H       1  UNL1        0.0265
     96 H           3.1923   -1.6308    0.0000 H       1  UNL1        0.0263
     97 H           2.3972   -1.6873    0.0000 H       1  UNL1        0.0263
     98 H           1.6527   -2.1793    0.0000 H       1  UNL1        0.0230
     99 H           1.4864   -3.0402    0.0000 H       1  UNL1        0.0230
    100 H           2.3473   -3.2065    0.0000 H       1  UNL1        0.0230
@<TRIPOS>BOND
     1    10     1    1
     2     1    26    1
     3    13     2    1
     4     2    28    1
     5    14     3    1
     6     3    60    1
     7    20     4    1
     8     4    64    1
     9     5    25    2
    10     6    26    2
    11     7    29    1
    12     7    75    1
    13     8    28    2
    14     9    10    1
    15     9    11    1
    16     9    12    1
    17     9    45    1
    18    10    11    1
    19    10    13    1
    20    11    16    1
    21    11    17    1
    22    12    14    1
    23    12    19    1
    24    12    46    1
    25    13    15    1
    26    13    47    1
    27    14    15    1
    28    14    18    1
    29    15    21    1
    30    15    48    1
    31    16    49    1
    32    16    50    1
    33    16    51    1
    34    17    52    1
    35    17    53    1
    36    17    54    1
    37    18    20    1
    38    18    24    1
    39    18    55    1
    40    19    22    2
    41    19    56    1
    42    20    23    1
    43    20    25    1
    44    21    57    1
    45    21    58    1
    46    21    59    1
    47    22    23    1
    48    22    29    1
    49    23    61    1
    50    23    62    1
    51    24    27    2
    52    24    63    1
    53    25    27    1
    54    26    30    1
    55    27    31    1
    56    28    32    1
    57    29    65    1
    58    29    66    1
    59    30    67    1
    60    30    68    1
    61    30    69    1
    62    31    70    1
    63    31    71    1
    64    31    72    1
    65    32    33    1
    66    32    73    1
    67    32    74    1
    68    33    34    1
    69    33    76    1
    70    33    77    1
    71    34    35    1
    72    34    78    1
    73    34    79    1
    74    35    36    1
    75    35    80    1
    76    35    81    1
    77    36    37    1
    78    36    82    1
    79    36    83    1
    80    37    38    1
    81    37    84    1
    82    37    85    1
    83    38    39    1
    84    38    86    1
    85    38    87    1
    86    39    40    1
    87    39    88    1
    88    39    89    1
    89    40    41    1
    90    40    90    1
    91    40    91    1
    92    41    42    1
    93    41    92    1
    94    41    93    1
    95    42    43    1
    96    42    94    1
    97    42    95    1
    98    43    44    1
    99    43    96    1
   100    43    97    1
   101    44    98    1
   102    44    99    1
   103    44   100    1
