@<TRIPOS>MOLECULE
IMPHY016084
 19 19 0 0 0
SMALL
GASTEIGER

@<TRIPOS>ATOM
      1 O           4.5981    2.1900    0.0000 O.2     1  UNL1       -0.4095
      2 N           3.7320    1.6900    0.0000 N.2     1  UNL1       -0.0997
      3 C           2.8660   -0.8100    0.0000 C.ar    1  UNL1       -0.0421
      4 C           2.8660    0.1900    0.0000 C.3     1  UNL1        0.0110
      5 C           2.0000   -1.3100    0.0000 C.ar    1  UNL1       -0.0582
      6 C           3.7320   -1.3100    0.0000 C.ar    1  UNL1       -0.0582
      7 C           2.0000   -2.3100    0.0000 C.ar    1  UNL1       -0.0615
      8 C           3.7320   -2.3100    0.0000 C.ar    1  UNL1       -0.0615
      9 C           2.8660   -2.8100    0.0000 C.ar    1  UNL1       -0.0617
     10 C           3.7320    0.6900    0.0000 C.2     1  UNL1        0.0481
     11 H           2.6540    0.7726    0.0000 H       1  UNL1        0.0372
     12 H           2.2554    0.0823    0.0000 H       1  UNL1        0.0372
     13 H           1.4631   -1.0000    0.0000 H       1  UNL1        0.0620
     14 H           4.2690   -1.0000    0.0000 H       1  UNL1        0.0620
     15 H           1.4631   -2.6200    0.0000 H       1  UNL1        0.0618
     16 H           4.2690   -2.6200    0.0000 H       1  UNL1        0.0618
     17 H           2.8660   -3.4300    0.0000 H       1  UNL1        0.0618
     18 H           4.2690    0.3800    0.0000 H       1  UNL1        0.0818
     19 H           4.5981    2.8100    0.0000 H       1  UNL1        0.3278
@<TRIPOS>BOND
     1     1     2    1
     2     1    19    1
     3     2    10    2
     4     3     4    1
     5     3     5   ar
     6     3     6   ar
     7     4    10    1
     8     4    11    1
     9     4    12    1
    10     5     7   ar
    11     5    13    1
    12     6     8   ar
    13     6    14    1
    14     7     9   ar
    15     7    15    1
    16     8     9   ar
    17     8    16    1
    18     9    17    1
    19    10    18    1
