@<TRIPOS>MOLECULE
IMPHY008921
 53 58 0 0 0
SMALL
GASTEIGER

@<TRIPOS>ATOM
      1 O           7.0628    1.1350    0.0000 O.3     1  UNL1       -0.2232
      2 O           9.4964    1.8408    0.0000 O.3     1  UNL1       -0.3334
      3 O           2.5357   -3.4173    0.0000 O.3     1  UNL1       -0.2232
      4 O          11.1427    1.3027    0.0000 O.3     1  UNL1       -0.3257
      5 O          10.1177    3.7418    0.0000 O.3     1  UNL1       -0.2149
      6 O          12.0747    4.1542    0.0000 O.3     1  UNL1       -0.2174
      7 O          13.4104    2.6656    0.0000 O.3     1  UNL1       -0.2176
      8 O          13.7676    0.9708    0.0000 O.3     1  UNL1       -0.3259
      9 O          15.4139    0.4327    0.0000 O.3     1  UNL1       -0.3257
     10 O          13.1462   -0.9302    0.0000 O.3     1  UNL1       -0.2149
     11 O          14.4819   -2.4188    0.0000 O.3     1  UNL1       -0.2174
     12 O          16.4389   -2.0064    0.0000 O.3     1  UNL1       -0.2176
     13 C           7.0628   -1.8650    0.0000 C.3     1  UNL1        0.0002
     14 C           7.9288   -1.3650    0.0000 C.3     1  UNL1        0.0024
     15 C           6.1968   -1.3650    0.0000 C.3     1  UNL1        0.0025
     16 C           5.2868   -1.8719    0.0000 C.3     1  UNL1        0.0002
     17 C           7.9288   -0.3650    0.0000 C.3     1  UNL1        0.0327
     18 C           5.2787   -2.9135    0.0000 C.3     1  UNL1        0.0024
     19 C           7.0789   -2.9065    0.0000 C.3     1  UNL1        0.0000
     20 C           8.8750   -0.0603    0.0000 C.3     1  UNL1        0.0275
     21 C           6.1968   -0.3650    0.0000 C.3     1  UNL1        0.0329
     22 C           7.0628    0.1350    0.0000 C.3     1  UNL1        0.1520
     23 C           8.8750   -1.6697    0.0000 C.3     1  UNL1        0.0002
     24 C           6.1808   -3.4343    0.0000 C.3     1  UNL1        0.0001
     25 C           4.3433   -3.4632    0.0000 C.3     1  UNL1        0.0282
     26 C           9.4586   -0.8650    0.0000 C.3     1  UNL1        0.0024
     27 C           4.3599   -1.3078    0.0000 C.3     1  UNL1        0.0026
     28 C           7.7056   -2.6311    0.0000 C.3     1  UNL1        0.0000
     29 C           8.2709   -2.3047    0.0000 C.3     1  UNL1        0.0001
     30 C           5.2945   -0.8719    0.0000 C.3     1  UNL1        0.0000
     31 C           9.1857    0.8902    0.0000 C.3     1  UNL1        0.0957
     32 C           3.4037   -2.9207    0.0000 C.3     1  UNL1        0.1519
     33 C           3.4120   -1.8357    0.0000 C.3     1  UNL1        0.0329
     34 C           4.8467   -4.3273    0.0000 C.3     1  UNL1        0.0025
     35 C           3.8467   -4.3311    0.0000 C.3     1  UNL1        0.0025
     36 C          10.1362    0.5796    0.0000 C.3     1  UNL1        0.0319
     37 C           8.2352    1.2009    0.0000 C.3     1  UNL1        0.0297
     38 C          10.3424   -0.3989    0.0000 C.3     1  UNL1        0.0278
     39 C          10.4749    2.0470    0.0000 C.3     1  UNL1        0.2693
     40 C          10.7855    2.9975    0.0000 C.3     1  UNL1        0.2406
     41 C          11.2930   -0.7096    0.0000 C.2     1  UNL1       -0.0345
     42 C          11.7640    3.2037    0.0000 C.3     1  UNL1        0.2198
     43 C          12.1212    1.5089    0.0000 C.3     1  UNL1        0.1802
     44 C          12.4319    2.4594    0.0000 C.3     1  UNL1        0.2143
     45 C          11.4992   -1.6881    0.0000 C.2     1  UNL1       -0.0478
     46 C          12.7891    0.7646    0.0000 C.3     1  UNL1        0.1770
     47 C          10.7549   -2.3559    0.0000 C.3     1  UNL1        0.0260
     48 C          12.4497   -1.9988    0.0000 C.3     1  UNL1        0.0260
     49 C          14.4354    0.2265    0.0000 C.3     1  UNL1        0.2695
     50 C          14.1248   -0.7240    0.0000 C.3     1  UNL1        0.2406
     51 C          14.7926   -1.4683    0.0000 C.3     1  UNL1        0.2198
     52 C          16.0818   -0.3116    0.0000 C.3     1  UNL1        0.1803
     53 C          15.7711   -1.2621    0.0000 C.3     1  UNL1        0.2143
@<TRIPOS>BOND
     1     1    22    1
     2     2    31    1
     3     3    32    1
     4     4    39    1
     5     4    43    1
     6     8    46    1
     7     9    49    1
     8     9    52    1
     9    13    14    1
    10    13    15    1
    11    13    19    1
    12    13    28    1
    13    14    17    1
    14    14    23    1
    15    14    29    1
    16    15    16    1
    17    15    21    1
    18    16    18    1
    19    16    27    1
    20    16    30    1
    21    17    20    1
    22    17    22    1
    23    18    24    1
    24    18    25    1
    25    19    24    1
    26    20    26    1
    27    20    31    1
    28    21    22    1
    29    23    26    1
    30    25    32    1
    31    25    34    1
    32    25    35    1
    33    27    33    1
    34    31    36    1
    35    31    37    1
    36    32    33    1
    37    36    38    1
    38    38    41    1
    39    39     2    1
    40    39    40    1
    41    40     5    1
    42    40    42    1
    43    41    45    2
    44    42     6    1
    45    42    44    1
    46    43    44    1
    47    43    46    1
    48    44     7    1
    49    45    47    1
    50    45    48    1
    51    49     8    1
    52    49    50    1
    53    50    10    1
    54    50    51    1
    55    51    11    1
    56    51    53    1
    57    52    53    1
    58    53    12    1
