@<TRIPOS>MOLECULE
IMPHY017376
 27 26 0 0 0
SMALL
GASTEIGER

@<TRIPOS>ATOM
      1 O           3.7320    0.4400    0.0000 O.3     1  UNL1       -0.4649
      2 O           4.5981   -1.0600    0.0000 O.2     1  UNL1       -0.2508
      3 C           6.3301   -0.0600    0.0000 C.3     1  UNL1       -0.0247
      4 C           5.4641    0.4400    0.0000 C.3     1  UNL1        0.0483
      5 C           7.1962    0.4400    0.0000 C.2     1  UNL1       -0.0874
      6 C           8.9282    0.4400    0.0000 C.3     1  UNL1       -0.0376
      7 C           8.0622   -0.0600    0.0000 C.2     1  UNL1       -0.0882
      8 C           4.5981   -0.0600    0.0000 C.2     1  UNL1        0.3074
      9 C           2.8660   -0.0600    0.0000 C.3     1  UNL1        0.0896
     10 C           9.7942   -0.0600    0.0000 C.3     1  UNL1       -0.0618
     11 C           2.0000    0.4400    0.0000 C.3     1  UNL1       -0.0306
     12 H           5.9316   -0.5349    0.0000 H       1  UNL1        0.0312
     13 H           6.7287   -0.5349    0.0000 H       1  UNL1        0.0312
     14 H           5.8626    0.9149    0.0000 H       1  UNL1        0.0380
     15 H           5.0656    0.9149    0.0000 H       1  UNL1        0.0380
     16 H           7.1962    1.0600    0.0000 H       1  UNL1        0.0569
     17 H           9.3267    0.9149    0.0000 H       1  UNL1        0.0305
     18 H           8.5297    0.9149    0.0000 H       1  UNL1        0.0305
     19 H           8.0622   -0.6800    0.0000 H       1  UNL1        0.0569
     20 H           2.4675   -0.5349    0.0000 H       1  UNL1        0.0694
     21 H           3.2646   -0.5349    0.0000 H       1  UNL1        0.0694
     22 H           9.4842   -0.5969    0.0000 H       1  UNL1        0.0233
     23 H          10.3312   -0.3700    0.0000 H       1  UNL1        0.0233
     24 H          10.1042    0.4769    0.0000 H       1  UNL1        0.0233
     25 H           2.3100    0.9769    0.0000 H       1  UNL1        0.0262
     26 H           1.4631    0.7500    0.0000 H       1  UNL1        0.0262
     27 H           1.6900   -0.0969    0.0000 H       1  UNL1        0.0262
@<TRIPOS>BOND
     1     1     8    1
     2     1     9    1
     3     2     8    2
     4     3     4    1
     5     3     5    1
     6     3    12    1
     7     3    13    1
     8     4     8    1
     9     4    14    1
    10     4    15    1
    11     5     7    2
    12     5    16    1
    13     6     7    1
    14     6    10    1
    15     6    17    1
    16     6    18    1
    17     7    19    1
    18     9    11    1
    19     9    20    1
    20     9    21    1
    21    10    22    1
    22    10    23    1
    23    10    24    1
    24    11    25    1
    25    11    26    1
    26    11    27    1
