@<TRIPOS>MOLECULE
IMPHY003872
 55 57 0 0 0
SMALL
GASTEIGER

@<TRIPOS>ATOM
      1 O           6.4421    0.0698    0.0000 O.3     1  UNL1       -0.3632
      2 C           3.8000   -0.4370    0.0000 C.3     1  UNL1       -0.0233
      3 C           3.8000   -1.4370    0.0000 C.3     1  UNL1       -0.0300
      4 C           4.6660    0.0630    0.0000 C.3     1  UNL1       -0.0063
      5 C           5.5321   -0.4370    0.0000 C.3     1  UNL1        0.0712
      6 C           2.9061   -1.9717    0.0000 C.3     1  UNL1       -0.0315
      7 C           4.6660   -1.9370    0.0000 C.3     1  UNL1       -0.0466
      8 C           2.9061    0.0976    0.0000 C.3     1  UNL1       -0.0470
      9 C           5.5321   -1.4370    0.0000 C.3     1  UNL1       -0.0234
     10 C           4.6500    1.1045    0.0000 C.3     1  UNL1       -0.0442
     11 C           2.0000   -1.4578    0.0000 C.3     1  UNL1       -0.0476
     12 C           2.0000   -0.4162    0.0000 C.3     1  UNL1       -0.0521
     13 C           3.8000    0.5630    0.0000 C.3     1  UNL1       -0.0589
     14 C           5.5480    1.6322    0.0000 C.3     1  UNL1       -0.0200
     15 C           6.4501    1.1114    0.0000 C.3     1  UNL1        0.0853
     16 C           6.3981   -0.9370    0.0000 C.3     1  UNL1       -0.0355
     17 C           2.4161   -2.8434    0.0000 C.3     1  UNL1       -0.0595
     18 C           3.4160   -2.8319    0.0000 C.3     1  UNL1       -0.0595
     19 C           7.4501    1.1076    0.0000 C.3     1  UNL1       -0.0322
     20 C           6.9534    1.9755    0.0000 C.2     1  UNL1       -0.0599
     21 C           6.4568    2.8434    0.0000 C.2     1  UNL1       -0.1000
     22 H           3.8048   -2.0570    0.0000 H       1  UNL1        0.0311
     23 H           5.2006    0.3771    0.0000 H       1  UNL1        0.0334
     24 H           4.2675   -2.4120    0.0000 H       1  UNL1        0.0269
     25 H           5.0646   -2.4120    0.0000 H       1  UNL1        0.0269
     26 H           3.3107    0.5674    0.0000 H       1  UNL1        0.0271
     27 H           2.5124    0.5766    0.0000 H       1  UNL1        0.0271
     28 H           5.7441   -2.0196    0.0000 H       1  UNL1        0.0293
     29 H           6.1426   -1.3294    0.0000 H       1  UNL1        0.0293
     30 H           4.4319    1.6849    0.0000 H       1  UNL1        0.0270
     31 H           4.0408    0.9890    0.0000 H       1  UNL1        0.0270
     32 H           1.3891   -1.3518    0.0000 H       1  UNL1        0.0271
     33 H           1.7909   -2.0415    0.0000 H       1  UNL1        0.0271
     34 H           1.7909    0.1675    0.0000 H       1  UNL1        0.0266
     35 H           1.3891   -0.5223    0.0000 H       1  UNL1        0.0266
     36 H           4.4200    0.5630    0.0000 H       1  UNL1        0.0235
     37 H           3.8000    1.1830    0.0000 H       1  UNL1        0.0235
     38 H           3.1800    0.5630    0.0000 H       1  UNL1        0.0235
     39 H           5.9453    2.1082    0.0000 H       1  UNL1        0.0296
     40 H           5.1470    2.1051    0.0000 H       1  UNL1        0.0296
     41 H           6.0881   -1.4740    0.0000 H       1  UNL1        0.0257
     42 H           6.9350   -1.2470    0.0000 H       1  UNL1        0.0257
     43 H           6.7081   -0.4001    0.0000 H       1  UNL1        0.0257
     44 H           2.8827   -3.1481    0.0000 H       1  UNL1        0.0235
     45 H           3.7322   -3.3652    0.0000 H       1  UNL1        0.0235
     46 H           3.9494   -2.5157    0.0000 H       1  UNL1        0.0235
     47 H           1.8756   -2.5397    0.0000 H       1  UNL1        0.0235
     48 H           2.1123   -3.3839    0.0000 H       1  UNL1        0.0235
     49 H           2.9566   -3.1472    0.0000 H       1  UNL1        0.0235
     50 H           7.4477    0.4876    0.0000 H       1  UNL1        0.0260
     51 H           8.0701    1.1052    0.0000 H       1  UNL1        0.0260
     52 H           7.4525    1.7276    0.0000 H       1  UNL1        0.0260
     53 H           7.5734    1.9731    0.0000 H       1  UNL1        0.0594
     54 H           6.7688    3.3792    0.0000 H       1  UNL1        0.0533
     55 H           5.8368    2.8458    0.0000 H       1  UNL1        0.0533
@<TRIPOS>BOND
     1     1     5    1
     2     1    15    1
     3     2     3    1
     4     2     4    1
     5     2     8    1
     6     2    13    1
     7     3     6    1
     8     3     7    1
     9     3    22    1
    10     4     5    1
    11     4    10    1
    12     4    23    1
    13     5     9    1
    14     5    16    1
    15     6    11    1
    16     6    17    1
    17     6    18    1
    18     7     9    1
    19     7    24    1
    20     7    25    1
    21     8    12    1
    22     8    26    1
    23     8    27    1
    24     9    28    1
    25     9    29    1
    26    10    14    1
    27    10    30    1
    28    10    31    1
    29    11    12    1
    30    11    32    1
    31    11    33    1
    32    12    34    1
    33    12    35    1
    34    13    36    1
    35    13    37    1
    36    13    38    1
    37    14    15    1
    38    14    39    1
    39    14    40    1
    40    15    19    1
    41    15    20    1
    42    16    41    1
    43    16    42    1
    44    16    43    1
    45    17    47    1
    46    17    48    1
    47    17    49    1
    48    18    44    1
    49    18    45    1
    50    18    46    1
    51    19    50    1
    52    19    51    1
    53    19    52    1
    54    20    21    2
    55    20    53    1
    56    21    54    1
    57    21    55    1
