@<TRIPOS>MOLECULE
IMPHY001743
 58 61 0 0 0
SMALL
GASTEIGER

@<TRIPOS>ATOM
      1 O           5.4641   -1.6725    0.0000 O.3     1  UNL1       -0.3221
      2 O           7.1962   -1.6725    0.0000 O.3     1  UNL1       -0.4569
      3 O           5.4641   -4.6725    0.0000 O.3     1  UNL1       -0.3863
      4 O           3.7320   -3.6725    0.0000 O.3     1  UNL1       -0.3860
      5 O           7.1962   -3.6725    0.0000 O.3     1  UNL1       -0.3829
      6 O           2.8660   -2.1725    0.0000 O.3     1  UNL1       -0.4661
      7 O           3.7320   -0.6725    0.0000 O.2     1  UNL1       -0.2478
      8 O           8.9722    1.3343    0.0000 O.2     1  UNL1       -0.4543
      9 O           5.4641   -0.6725    0.0000 O.3     1  UNL1       -0.4885
     10 O           5.4641    1.3275    0.0000 O.3     1  UNL1       -0.5027
     11 O           6.3083    2.8589    0.0000 O.2     1  UNL1       -0.2869
     12 O          12.4443    2.3626    0.0000 O.3     1  UNL1       -0.5033
     13 O          12.4520    4.3625    0.0000 O.3     1  UNL1       -0.5033
     14 C           5.4641   -3.6725    0.0000 C.3     1  UNL1        0.1157
     15 C           4.5981   -3.1725    0.0000 C.3     1  UNL1        0.1202
     16 C           6.3301   -3.1725    0.0000 C.3     1  UNL1        0.1455
     17 C           4.5981   -2.1725    0.0000 C.3     1  UNL1        0.1871
     18 C           6.3301   -2.1725    0.0000 C.3     1  UNL1        0.2314
     19 C           3.7320   -1.6725    0.0000 C.2     1  UNL1        0.3388
     20 C           7.1962   -0.6725    0.0000 C.ar    1  UNL1        0.1726
     21 C           6.3301   -0.1725    0.0000 C.ar    1  UNL1        0.2044
     22 C           8.0622   -0.1725    0.0000 C.ar    1  UNL1        0.0271
     23 C           8.0622    0.8275    0.0000 C.ar    1  UNL1        0.1465
     24 C           7.1962    1.3275    0.0000 C.ar    1  UNL1        0.1091
     25 C           6.3301    0.8275    0.0000 C.ar    1  UNL1        0.1768
     26 C           7.1801    2.3690    0.0000 C.ar    1  UNL1        0.1967
     27 C           2.0000   -1.6725    0.0000 C.3     1  UNL1        0.0817
     28 C           8.9802    2.3759    0.0000 C.ar    1  UNL1        0.1393
     29 C           8.0781    2.8967    0.0000 C.ar    1  UNL1        0.0288
     30 C           9.8482    2.8726    0.0000 C.ar    1  UNL1        0.0211
     31 C           4.5981   -0.1725    0.0000 C.3     1  UNL1        0.0791
     32 C          10.7122    2.3692    0.0000 C.ar    1  UNL1       -0.0059
     33 C           9.8520    3.8726    0.0000 C.ar    1  UNL1       -0.0474
     34 C          11.5802    2.8659    0.0000 C.ar    1  UNL1        0.1589
     35 C          10.7200    4.3692    0.0000 C.ar    1  UNL1       -0.0159
     36 C          11.5840    3.8659    0.0000 C.ar    1  UNL1        0.1583
     37 H           6.0010   -3.9825    0.0000 H       1  UNL1        0.0648
     38 H           4.5981   -3.7925    0.0000 H       1  UNL1        0.0652
     39 H           6.8671   -2.8625    0.0000 H       1  UNL1        0.0683
     40 H           4.5981   -1.5525    0.0000 H       1  UNL1        0.0742
     41 H           6.3301   -1.5525    0.0000 H       1  UNL1        0.1084
     42 H           6.0010   -4.9825    0.0000 H       1  UNL1        0.2100
     43 H           3.7320   -4.2925    0.0000 H       1  UNL1        0.2100
     44 H           7.7331   -3.3625    0.0000 H       1  UNL1        0.2102
     45 H           8.5991   -0.4825    0.0000 H       1  UNL1        0.0692
     46 H           2.3100   -1.1356    0.0000 H       1  UNL1        0.0661
     47 H           1.4631   -1.3625    0.0000 H       1  UNL1        0.0661
     48 H           1.6900   -2.2095    0.0000 H       1  UNL1        0.0661
     49 H           8.0757    3.5167    0.0000 H       1  UNL1        0.0693
     50 H           4.9272    1.0175    0.0000 H       1  UNL1        0.2923
     51 H           4.9081    0.3644    0.0000 H       1  UNL1        0.0660
     52 H           4.0611    0.1375    0.0000 H       1  UNL1        0.0660
     53 H           4.2881   -0.7095    0.0000 H       1  UNL1        0.0660
     54 H          10.7099    1.7492    0.0000 H       1  UNL1        0.0662
     55 H           9.3163    4.1846    0.0000 H       1  UNL1        0.0626
     56 H          10.7223    4.9892    0.0000 H       1  UNL1        0.0655
     57 H          12.9824    2.6705    0.0000 H       1  UNL1        0.2923
     58 H          12.4544    4.9825    0.0000 H       1  UNL1        0.2923
@<TRIPOS>BOND
     1     1    17    1
     2     1    18    1
     3    18     2    1
     4     2    20    1
     5    14     3    1
     6     3    42    1
     7    15     4    1
     8     4    43    1
     9    16     5    1
    10     5    44    1
    11     6    19    1
    12     6    27    1
    13     7    19    2
    14     8    23   ar
    15     8    28   ar
    16     9    21    1
    17     9    31    1
    18    10    25    1
    19    10    50    1
    20    11    26    2
    21    12    34    1
    22    12    57    1
    23    13    36    1
    24    13    58    1
    25    14    15    1
    26    14    16    1
    27    14    37    1
    28    15    17    1
    29    15    38    1
    30    16    18    1
    31    16    39    1
    32    17    19    1
    33    17    40    1
    34    18    41    1
    35    20    21   ar
    36    20    22   ar
    37    21    25   ar
    38    22    23   ar
    39    22    45    1
    40    23    24   ar
    41    24    25   ar
    42    24    26   ar
    43    26    29   ar
    44    27    46    1
    45    27    47    1
    46    27    48    1
    47    28    29   ar
    48    28    30    1
    49    29    49    1
    50    30    32   ar
    51    30    33   ar
    52    31    51    1
    53    31    52    1
    54    31    53    1
    55    32    34   ar
    56    32    54    1
    57    33    35   ar
    58    33    55    1
    59    34    36   ar
    60    35    36   ar
    61    35    56    1
