@<TRIPOS>MOLECULE
IMPHY006690
 38 39 0 0 0
SMALL
GASTEIGER

@<TRIPOS>ATOM
      1 O           6.3301    0.5000    0.0000 O.3     1  UNL1       -0.5062
      2 O           2.8660   -0.5000    0.0000 O.3     1  UNL1       -0.5062
      3 C           4.5981   -0.5000    0.0000 C.ar    1  UNL1        0.0273
      4 C           4.5981    0.5000    0.0000 C.ar    1  UNL1        0.0273
      5 C           5.4641   -2.0000    0.0000 C.ar    1  UNL1       -0.0428
      6 C           3.7320    2.0000    0.0000 C.ar    1  UNL1       -0.0428
      7 C           5.4641   -1.0000    0.0000 C.ar    1  UNL1       -0.0469
      8 C           3.7320    1.0000    0.0000 C.ar    1  UNL1       -0.0469
      9 C           3.7320   -1.0000    0.0000 C.ar    1  UNL1        0.1247
     10 C           5.4641    1.0000    0.0000 C.ar    1  UNL1        0.1247
     11 C           2.8660    2.5000    0.0000 C.3     1  UNL1       -0.0097
     12 C           6.3301   -2.5000    0.0000 C.3     1  UNL1       -0.0097
     13 C           4.5981    2.5000    0.0000 C.ar    1  UNL1       -0.0548
     14 C           4.5981   -2.5000    0.0000 C.ar    1  UNL1       -0.0548
     15 C           5.4641    2.0000    0.0000 C.ar    1  UNL1       -0.0193
     16 C           3.7320   -2.0000    0.0000 C.ar    1  UNL1       -0.0193
     17 C           2.8660    3.5000    0.0000 C.2     1  UNL1       -0.0868
     18 C           6.3301   -3.5000    0.0000 C.2     1  UNL1       -0.0868
     19 C           2.0000    4.0000    0.0000 C.2     1  UNL1       -0.1023
     20 C           7.1962   -4.0000    0.0000 C.2     1  UNL1       -0.1023
     21 H           6.0010   -0.6900    0.0000 H       1  UNL1        0.0628
     22 H           3.1951    0.6900    0.0000 H       1  UNL1        0.0628
     23 H           6.9407   -2.6077    0.0000 H       1  UNL1        0.0355
     24 H           6.5422   -1.9174    0.0000 H       1  UNL1        0.0355
     25 H           2.2554    2.6077    0.0000 H       1  UNL1        0.0355
     26 H           2.6540    1.9174    0.0000 H       1  UNL1        0.0355
     27 H           4.5981   -3.1200    0.0000 H       1  UNL1        0.0622
     28 H           4.5981    3.1200    0.0000 H       1  UNL1        0.0622
     29 H           3.1951   -2.3100    0.0000 H       1  UNL1        0.0654
     30 H           6.0010    2.3100    0.0000 H       1  UNL1        0.0654
     31 H           5.7932   -3.8100    0.0000 H       1  UNL1        0.0570
     32 H           3.4030    3.8100    0.0000 H       1  UNL1        0.0570
     33 H           6.8671    0.8100    0.0000 H       1  UNL1        0.2922
     34 H           2.3291   -0.8100    0.0000 H       1  UNL1        0.2922
     35 H           2.0000    4.6200    0.0000 H       1  UNL1        0.0532
     36 H           1.4631    3.6900    0.0000 H       1  UNL1        0.0532
     37 H           7.1962   -4.6200    0.0000 H       1  UNL1        0.0532
     38 H           7.7331   -3.6900    0.0000 H       1  UNL1        0.0532
@<TRIPOS>BOND
     1     1    10    1
     2     1    33    1
     3     2     9    1
     4     2    34    1
     5     3     4    1
     6     3     7   ar
     7     3     9   ar
     8     4     8   ar
     9     4    10   ar
    10     5     7   ar
    11     5    12    1
    12     5    14   ar
    13     6     8   ar
    14     6    11    1
    15     6    13   ar
    16     7    21    1
    17     8    22    1
    18     9    16   ar
    19    10    15   ar
    20    11    17    1
    21    11    25    1
    22    11    26    1
    23    12    18    1
    24    12    23    1
    25    12    24    1
    26    13    15   ar
    27    13    28    1
    28    14    16   ar
    29    14    27    1
    30    15    30    1
    31    16    29    1
    32    17    19    2
    33    17    32    1
    34    18    20    2
    35    18    31    1
    36    19    35    1
    37    19    36    1
    38    20    37    1
    39    20    38    1
