@<TRIPOS>MOLECULE
IMPHY017902
 27 28 0 0 0
SMALL
GASTEIGER

@<TRIPOS>ATOM
      1 O           2.5369    0.5000    0.0000 O.3     1  UNL1       -0.3907
      2 C           6.8676   -0.0000    0.0000 C.3     1  UNL1       -0.0250
      3 C           6.0010   -0.5000    0.0000 C.3     1  UNL1       -0.0283
      4 C           6.0010    0.5000    0.0000 C.3     1  UNL1       -0.0138
      5 C           5.1350   -1.0000    0.0000 C.3     1  UNL1       -0.0454
      6 C           5.1350    1.0000    0.0000 C.2     1  UNL1       -0.0787
      7 C           7.3676   -0.8660    0.0000 C.3     1  UNL1       -0.0590
      8 C           7.3676    0.8660    0.0000 C.3     1  UNL1       -0.0590
      9 C           4.2690   -0.5000    0.0000 C.3     1  UNL1       -0.0293
     10 C           4.2690    0.5000    0.0000 C.2     1  UNL1       -0.0481
     11 C           3.4030    1.0000    0.0000 C.3     1  UNL1        0.0653
     12 H           6.4259   -1.2362    0.0000 H       1  UNL1        0.0312
     13 H           6.4259    1.2362    0.0000 H       1  UNL1        0.0351
     14 H           4.7365   -1.4750    0.0000 H       1  UNL1        0.0271
     15 H           5.5335   -1.4750    0.0000 H       1  UNL1        0.0271
     16 H           5.1350    1.6200    0.0000 H       1  UNL1        0.0575
     17 H           6.8306   -1.1760    0.0000 H       1  UNL1        0.0235
     18 H           7.6776   -1.4030    0.0000 H       1  UNL1        0.0235
     19 H           7.9045   -0.5560    0.0000 H       1  UNL1        0.0235
     20 H           7.9045    0.5560    0.0000 H       1  UNL1        0.0235
     21 H           7.6776    1.4030    0.0000 H       1  UNL1        0.0235
     22 H           6.8306    1.1760    0.0000 H       1  UNL1        0.0235
     23 H           3.6584   -0.3923    0.0000 H       1  UNL1        0.0311
     24 H           4.0569   -1.0826    0.0000 H       1  UNL1        0.0311
     25 H           3.8015    1.4750    0.0000 H       1  UNL1        0.0604
     26 H           3.0044    1.4750    0.0000 H       1  UNL1        0.0604
     27 H           2.0000    0.8100    0.0000 H       1  UNL1        0.2098
@<TRIPOS>BOND
     1     1    11    1
     2     1    27    1
     3     2     3    1
     4     2     4    1
     5     2     7    1
     6     2     8    1
     7     3     4    1
     8     3     5    1
     9     3    12    1
    10     4     6    1
    11     4    13    1
    12     5     9    1
    13     5    14    1
    14     5    15    1
    15     6    10    2
    16     6    16    1
    17     7    17    1
    18     7    18    1
    19     7    19    1
    20     8    20    1
    21     8    21    1
    22     8    22    1
    23     9    10    1
    24     9    23    1
    25     9    24    1
    26    10    11    1
    27    11    25    1
    28    11    26    1
