@<TRIPOS>MOLECULE
IMPHY004224
 21 20 0 0 0
SMALL
GASTEIGER

@<TRIPOS>ATOM
      1 C           1.7279    0.9954    0.0000 C.2     1  UNL1        0.3171
      2 C           2.5918    1.4978    0.0000 C.3     1  UNL1        0.1096
      3 O           0.8639    1.4978    0.0000 O.3     1  UNL1       -0.4444
      4 O           1.7279    0.0000    0.0000 O.2     1  UNL1       -0.2501
      5 C           3.4557    0.9954    0.0000 C.3     1  UNL1        0.0116
      6 C           0.0000    0.9954    0.0000 C.3     1  UNL1        0.2556
      7 C           4.3243    1.4978    0.0000 C.3     1  UNL1        0.0006
      8 C           5.1883    0.9954    0.0000 C.3     1  UNL1        0.0000
      9 C           6.0522    1.4978    0.0000 C.3     1  UNL1        0.0003
     10 C           6.9161    0.9954    0.0000 C.3     1  UNL1        0.0047
     11 C           7.7801    1.4978    0.0000 C.3     1  UNL1        0.0257
     12 C           8.6487    0.9954    0.0000 C.2     1  UNL1       -0.0304
     13 C           9.5126    1.4978    0.0000 C.2     1  UNL1       -0.0260
     14 C          10.3765    0.9954    0.0000 C.3     1  UNL1        0.0513
     15 C          11.2405    1.4978    0.0000 C.2     1  UNL1       -0.0260
     16 C          12.1044    0.9954    0.0000 C.2     1  UNL1       -0.0304
     17 C          12.9730    1.4978    0.0000 C.3     1  UNL1        0.0257
     18 C          13.8370    0.9954    0.0000 C.3     1  UNL1        0.0047
     19 C          14.7009    1.4978    0.0000 C.3     1  UNL1        0.0003
     20 C          15.5648    0.9954    0.0000 C.3     1  UNL1        0.0000
     21 C          16.4334    1.4978    0.0000 C.3     1  UNL1        0.0000
@<TRIPOS>BOND
     1     1     2    1
     2     1     3    1
     3     1     4    2
     4     2     5    1
     5     3     6    1
     6     5     7    1
     7     7     8    1
     8     8     9    1
     9     9    10    1
    10    10    11    1
    11    11    12    1
    12    12    13    2
    13    13    14    1
    14    14    15    1
    15    15    16    2
    16    16    17    1
    17    17    18    1
    18    18    19    1
    19    19    20    1
    20    20    21    1
