@<TRIPOS>MOLECULE
IMPHY009780
 37 37 0 0 0
SMALL
GASTEIGER

@<TRIPOS>ATOM
      1 O           5.1350   -1.0000    0.0000 O.3     1  UNL1       -0.4611
      2 O           3.4030   -1.0000    0.0000 O.2     1  UNL1       -0.2448
      3 O           2.5369   -2.5000    0.0000 O.3     1  UNL1       -0.5059
      4 C           6.8671    2.0000    0.0000 C.3     1  UNL1       -0.0530
      5 C           6.0010    1.5000    0.0000 C.3     1  UNL1       -0.0500
      6 C           6.8671    3.0000    0.0000 C.3     1  UNL1       -0.0533
      7 C           6.0010    0.5000    0.0000 C.3     1  UNL1       -0.0185
      8 C           7.7331    3.5000    0.0000 C.3     1  UNL1       -0.0559
      9 C           5.1350    0.0000    0.0000 C.3     1  UNL1        0.0928
     10 C           7.7331    4.5000    0.0000 C.3     1  UNL1       -0.0653
     11 C           4.2690   -1.5000    0.0000 C.2     1  UNL1        0.3427
     12 C           4.2690   -2.5000    0.0000 C.ar    1  UNL1        0.1003
     13 C           3.4030   -3.0000    0.0000 C.ar    1  UNL1        0.1308
     14 C           5.1350   -3.0000    0.0000 C.ar    1  UNL1       -0.0442
     15 C           3.4030   -4.0000    0.0000 C.ar    1  UNL1       -0.0194
     16 C           5.1350   -4.0000    0.0000 C.ar    1  UNL1       -0.0608
     17 C           4.2690   -4.5000    0.0000 C.ar    1  UNL1       -0.0583
     18 H           7.0791    1.4174    0.0000 H       1  UNL1        0.0265
     19 H           7.4776    2.1077    0.0000 H       1  UNL1        0.0265
     20 H           5.7890    2.0826    0.0000 H       1  UNL1        0.0266
     21 H           5.3905    1.3923    0.0000 H       1  UNL1        0.0266
     22 H           6.6550    3.5826    0.0000 H       1  UNL1        0.0265
     23 H           6.2565    2.8923    0.0000 H       1  UNL1        0.0265
     24 H           6.2131   -0.0826    0.0000 H       1  UNL1        0.0298
     25 H           6.6116    0.6077    0.0000 H       1  UNL1        0.0298
     26 H           7.9451    2.9174    0.0000 H       1  UNL1        0.0263
     27 H           8.3437    3.6077    0.0000 H       1  UNL1        0.0263
     28 H           4.9230    0.5826    0.0000 H       1  UNL1        0.0697
     29 H           4.5244   -0.1077    0.0000 H       1  UNL1        0.0697
     30 H           8.3531    4.5000    0.0000 H       1  UNL1        0.0230
     31 H           7.7331    5.1200    0.0000 H       1  UNL1        0.0230
     32 H           7.1131    4.5000    0.0000 H       1  UNL1        0.0230
     33 H           5.6720   -2.6900    0.0000 H       1  UNL1        0.0627
     34 H           2.8660   -4.3100    0.0000 H       1  UNL1        0.0654
     35 H           5.6720   -4.3100    0.0000 H       1  UNL1        0.0618
     36 H           4.2690   -5.1200    0.0000 H       1  UNL1        0.0619
     37 H           2.0000   -2.8100    0.0000 H       1  UNL1        0.2922
@<TRIPOS>BOND
     1     1     9    1
     2     1    11    1
     3     2    11    2
     4     3    13    1
     5     3    37    1
     6     4     5    1
     7     4     6    1
     8     4    18    1
     9     4    19    1
    10     5     7    1
    11     5    20    1
    12     5    21    1
    13     6     8    1
    14     6    22    1
    15     6    23    1
    16     7     9    1
    17     7    24    1
    18     7    25    1
    19     8    10    1
    20     8    26    1
    21     8    27    1
    22     9    28    1
    23     9    29    1
    24    10    30    1
    25    10    31    1
    26    10    32    1
    27    11    12    1
    28    12    13   ar
    29    12    14   ar
    30    13    15   ar
    31    14    16   ar
    32    14    33    1
    33    15    17   ar
    34    15    34    1
    35    16    17   ar
    36    16    35    1
    37    17    36    1
