@<TRIPOS>MOLECULE
IMPHY007021
 74 79 0 0 0
SMALL
GASTEIGER

@<TRIPOS>ATOM
      1 O           3.7998   -3.3698    0.0000 O.3     1  UNL1       -0.3607
      2 O           6.4344   -1.8625    0.0000 O.3     1  UNL1       -0.3876
      3 O           7.1381    1.4428    0.0000 O.3     1  UNL1       -0.3850
      4 O           2.9176   -3.9040    0.0000 O.3     1  UNL1       -0.3848
      5 O           8.8328    0.2545    0.0000 O.3     1  UNL1       -0.3823
      6 O           2.9176    0.1652    0.0000 O.2     1  UNL1       -0.2920
      7 O           8.9720    2.6446    0.0000 O.3     1  UNL1       -0.4548
      8 O           9.6914    4.2202    0.0000 O.2     1  UNL1       -0.2453
      9 C           5.5321   -1.3694    0.0000 C.3     1  UNL1       -0.0053
     10 C           6.4421   -0.8625    0.0000 C.3     1  UNL1        0.0774
     11 C           4.6660   -0.8694    0.0000 C.3     1  UNL1       -0.0202
     12 C           3.8000   -2.3694    0.0000 C.3     1  UNL1        0.1376
     13 C           6.4501    0.1791    0.0000 C.3     1  UNL1        0.0285
     14 C           3.8000   -1.3694    0.0000 C.3     1  UNL1        0.0674
     15 C           4.6660   -2.8694    0.0000 C.3     1  UNL1        0.0926
     16 C           5.5321   -2.3694    0.0000 C.3     1  UNL1       -0.0180
     17 C           7.4381    0.4889    0.0000 C.3     1  UNL1        0.1058
     18 C           4.6500    0.1721    0.0000 C.3     1  UNL1       -0.0482
     19 C           5.5480    0.6999    0.0000 C.3     1  UNL1       -0.0420
     20 C           7.4252   -1.1876    0.0000 C.3     1  UNL1       -0.0204
     21 C           8.0396   -0.3540    0.0000 C.3     1  UNL1       -0.0179
     22 C           2.9061   -2.9040    0.0000 C.3     1  UNL1        0.1060
     23 C           8.2526    1.0690    0.0000 C.3     1  UNL1        0.1293
     24 C           6.1153    1.1214    0.0000 C.3     1  UNL1       -0.0542
     25 C           3.8000   -0.3694    0.0000 C.3     1  UNL1       -0.0494
     26 C           2.9061   -0.8347    0.0000 C.2     1  UNL1        0.1649
     27 C           2.0000   -2.3902    0.0000 C.2     1  UNL1       -0.0497
     28 C           2.0000   -1.3486    0.0000 C.2     1  UNL1       -0.0200
     29 C           9.0672    1.6491    0.0000 C.3     1  UNL1        0.1380
     30 C           7.6725    1.8835    0.0000 C.3     1  UNL1       -0.0298
     31 C           9.9768    1.2338    0.0000 C.3     1  UNL1        0.0089
     32 C          10.7914    1.8139    0.0000 C.2     1  UNL1       -0.0594
     33 C           9.7866    3.2247    0.0000 C.2     1  UNL1        0.3352
     34 C          10.6962    2.8094    0.0000 C.2     1  UNL1        0.0326
     35 C          11.7010    1.3986    0.0000 C.3     1  UNL1       -0.0429
     36 C          11.5108    3.3895    0.0000 C.3     1  UNL1       -0.0330
     37 H           6.2649   -1.8000    0.0000 H       1  UNL1        0.0332
     38 H           5.3989   -0.4387    0.0000 H       1  UNL1        0.0315
     39 H           5.0911   -3.6054    0.0000 H       1  UNL1        0.0626
     40 H           5.7441   -2.9520    0.0000 H       1  UNL1        0.0295
     41 H           6.1426   -2.2617    0.0000 H       1  UNL1        0.0295
     42 H           4.4319    0.7525    0.0000 H       1  UNL1        0.0269
     43 H           4.0408    0.0566    0.0000 H       1  UNL1        0.0269
     44 H           5.9453    1.1758    0.0000 H       1  UNL1        0.0272
     45 H           5.1470    1.1728    0.0000 H       1  UNL1        0.0272
     46 H           7.1698   -1.7525    0.0000 H       1  UNL1        0.0294
     47 H           7.9602   -1.5009    0.0000 H       1  UNL1        0.0294
     48 H           8.4972   -0.7723    0.0000 H       1  UNL1        0.0295
     49 H           8.5036    0.0571    0.0000 H       1  UNL1        0.0295
     50 H           2.3721   -3.2192    0.0000 H       1  UNL1        0.0668
     51 H           6.6996    1.3289    0.0000 H       1  UNL1        0.0237
     52 H           5.9078    1.7056    0.0000 H       1  UNL1        0.0237
     53 H           5.5311    0.9138    0.0000 H       1  UNL1        0.0237
     54 H           4.4200   -0.3694    0.0000 H       1  UNL1        0.0240
     55 H           3.8000    0.2506    0.0000 H       1  UNL1        0.0240
     56 H           3.1800   -0.3694    0.0000 H       1  UNL1        0.0240
     57 H           6.9689   -2.1766    0.0000 H       1  UNL1        0.2102
     58 H           1.4643   -2.7023    0.0000 H       1  UNL1        0.0599
     59 H           6.6154    1.7763    0.0000 H       1  UNL1        0.2103
     60 H           1.4643   -1.0365    0.0000 H       1  UNL1        0.0650
     61 H           8.2940    2.0022    0.0000 H       1  UNL1        0.0767
     62 H           8.1775    2.2432    0.0000 H       1  UNL1        0.0259
     63 H           7.3128    2.3885    0.0000 H       1  UNL1        0.0259
     64 H           7.1675    1.5238    0.0000 H       1  UNL1        0.0259
     65 H           2.3843   -4.2202    0.0000 H       1  UNL1        0.2103
     66 H           9.4500    0.3134    0.0000 H       1  UNL1        0.2104
     67 H           9.6253    0.7231    0.0000 H       1  UNL1        0.0347
     68 H          10.4187    0.7989    0.0000 H       1  UNL1        0.0347
     69 H          11.4435    0.8346    0.0000 H       1  UNL1        0.0275
     70 H          12.2650    1.1410    0.0000 H       1  UNL1        0.0275
     71 H          11.9586    1.9626    0.0000 H       1  UNL1        0.0275
     72 H          11.8704    2.8845    0.0000 H       1  UNL1        0.0280
     73 H          12.0158    3.7492    0.0000 H       1  UNL1        0.0280
     74 H          11.1511    3.8945    0.0000 H       1  UNL1        0.0280
@<TRIPOS>BOND
     1    12     1    1
     2     1    15    1
     3    10     2    1
     4     2    57    1
     5    17     3    1
     6     3    59    1
     7    22     4    1
     8     4    65    1
     9    23     5    1
    10     5    66    1
    11     6    26    2
    12     7    29    1
    13     7    33    1
    14     8    33    2
    15     9    10    1
    16     9    11    1
    17     9    16    1
    18     9    37    1
    19    10    13    1
    20    10    20    1
    21    11    14    1
    22    11    18    1
    23    11    38    1
    24    12    14    1
    25    12    15    1
    26    12    22    1
    27    13    17    1
    28    13    19    1
    29    13    24    1
    30    14    25    1
    31    14    26    1
    32    15    16    1
    33    15    39    1
    34    16    40    1
    35    16    41    1
    36    17    21    1
    37    17    23    1
    38    18    19    1
    39    18    42    1
    40    18    43    1
    41    19    44    1
    42    19    45    1
    43    20    21    1
    44    20    46    1
    45    20    47    1
    46    21    48    1
    47    21    49    1
    48    22    27    1
    49    22    50    1
    50    23    29    1
    51    23    30    1
    52    24    51    1
    53    24    52    1
    54    24    53    1
    55    25    54    1
    56    25    55    1
    57    25    56    1
    58    26    28    1
    59    27    28    2
    60    27    58    1
    61    28    60    1
    62    29    31    1
    63    29    61    1
    64    30    62    1
    65    30    63    1
    66    30    64    1
    67    31    32    1
    68    31    67    1
    69    31    68    1
    70    32    34    2
    71    32    35    1
    72    33    34    1
    73    34    36    1
    74    35    69    1
    75    35    70    1
    76    35    71    1
    77    36    72    1
    78    36    73    1
    79    36    74    1
