@<TRIPOS>MOLECULE
IMPHY002765
 58 63 0 0 0
SMALL
GASTEIGER

@<TRIPOS>ATOM
      1 O           3.5239    0.6002    0.0000 O.3     1  UNL1       -0.3389
      2 O           4.4180   -0.9622    0.0000 O.3     1  UNL1       -0.3424
      3 O           2.2549    1.3023    0.0000 O.3     1  UNL1       -0.3851
      4 O           4.3803   -2.4119    0.0000 O.3     1  UNL1       -0.3886
      5 O           8.8300    2.6312    0.0000 O.3     1  UNL1       -0.3918
      6 C           4.4339    1.1071    0.0000 C.3     1  UNL1        0.1076
      7 C           2.9220   -0.7812    0.0000 C.3     1  UNL1        0.0354
      8 C           3.0355    0.6773    0.0000 C.3     1  UNL1        0.1035
      9 C           5.2999    0.6071    0.0000 C.3     1  UNL1        0.0254
     10 C           3.6796   -1.4164    0.0000 C.3     1  UNL1        0.0235
     11 C           5.3160   -0.4344    0.0000 C.3     1  UNL1        0.0944
     12 C           4.2370   -1.4223    0.0000 C.3     1  UNL1        0.0903
     13 C           3.5159   -0.4414    0.0000 C.3     1  UNL1        0.1719
     14 C           6.1659    1.1071    0.0000 C.3     1  UNL1       -0.0211
     15 C           2.4404   -0.1279    0.0000 C.3     1  UNL1       -0.0202
     16 C           2.7348   -1.0849    0.0000 C.3     1  UNL1       -0.0419
     17 C           4.4339    2.1071    0.0000 C.3     1  UNL1       -0.0203
     18 C           6.1659    2.1071    0.0000 C.3     1  UNL1       -0.0328
     19 C           5.2999    2.6071    0.0000 C.3     1  UNL1       -0.0469
     20 C           2.0000   -1.1685    0.0000 C.3     1  UNL1       -0.0540
     21 C           7.0599    0.5724    0.0000 C.3     1  UNL1       -0.0446
     22 C           2.6349    0.2979    0.0000 C.3     1  UNL1       -0.0102
     23 C           6.5081    0.1674    0.0000 C.3     1  UNL1       -0.0589
     24 C           7.0599    2.6418    0.0000 C.3     1  UNL1       -0.0235
     25 C           7.9660    1.0863    0.0000 C.3     1  UNL1       -0.0263
     26 C           7.9660    2.1279    0.0000 C.3     1  UNL1        0.0555
     27 H           6.0360    0.1821    0.0000 H       1  UNL1        0.0361
     28 H           3.8204   -2.2547    0.0000 H       1  UNL1        0.0360
     29 H           6.0965   -0.7709    0.0000 H       1  UNL1        0.0627
     30 H           3.7362   -1.7878    0.0000 H       1  UNL1        0.0626
     31 H           2.0305    0.3372    0.0000 H       1  UNL1        0.0294
     32 H           1.8994   -0.4308    0.0000 H       1  UNL1        0.0294
     33 H           2.1172   -1.1385    0.0000 H       1  UNL1        0.0271
     34 H           2.6572   -1.7000    0.0000 H       1  UNL1        0.0271
     35 H           4.2218    2.6897    0.0000 H       1  UNL1        0.0294
     36 H           3.8233    1.9994    0.0000 H       1  UNL1        0.0294
     37 H           6.1594    2.9571    0.0000 H       1  UNL1        0.0307
     38 H           5.6984    3.0820    0.0000 H       1  UNL1        0.0269
     39 H           4.9014    3.0820    0.0000 H       1  UNL1        0.0269
     40 H           1.7599   -0.5969    0.0000 H       1  UNL1        0.0237
     41 H           1.4284   -1.4086    0.0000 H       1  UNL1        0.0237
     42 H           2.2401   -1.7401    0.0000 H       1  UNL1        0.0237
     43 H           6.6553    0.1026    0.0000 H       1  UNL1        0.0272
     44 H           7.4535    0.0934    0.0000 H       1  UNL1        0.0272
     45 H           2.3485    1.9152    0.0000 H       1  UNL1        0.2103
     46 H           3.0335    0.7728    0.0000 H       1  UNL1        0.0281
     47 H           2.1600    0.6964    0.0000 H       1  UNL1        0.0281
     48 H           2.2364   -0.1771    0.0000 H       1  UNL1        0.0281
     49 H           5.9255   -0.0447    0.0000 H       1  UNL1        0.0235
     50 H           6.7202   -0.4152    0.0000 H       1  UNL1        0.0235
     51 H           7.0906    0.3795    0.0000 H       1  UNL1        0.0235
     52 H           7.4535    3.1208    0.0000 H       1  UNL1        0.0293
     53 H           6.6553    3.1115    0.0000 H       1  UNL1        0.0293
     54 H           8.1750    0.5026    0.0000 H       1  UNL1        0.0290
     55 H           8.5768    1.1924    0.0000 H       1  UNL1        0.0290
     56 H           4.9561   -2.6418    0.0000 H       1  UNL1        0.2099
     57 H           8.5035    1.8189    0.0000 H       1  UNL1        0.0593
     58 H           9.3682    2.3233    0.0000 H       1  UNL1        0.2098
@<TRIPOS>BOND
     1     1     6    1
     2     1    13    1
     3     2    11    1
     4     2    13    1
     5     8     3    1
     6     3    45    1
     7    12     4    1
     8     4    56    1
     9    26     5    1
    10     5    58    1
    11     6     8    1
    12     6     9    1
    13     6    17    1
    14     7     8    1
    15     7    10    1
    16     7    12    1
    17     7    20    1
    18     8    15    1
    19     9    11    1
    20     9    14    1
    21     9    27    1
    22    10    13    1
    23    10    16    1
    24    10    28    1
    25    11    12    1
    26    11    29    1
    27    12    30    1
    28    13    22    1
    29    14    18    1
    30    14    21    1
    31    14    23    1
    32    15    16    1
    33    15    31    1
    34    15    32    1
    35    16    33    1
    36    16    34    1
    37    17    19    1
    38    17    35    1
    39    17    36    1
    40    18    19    1
    41    18    24    1
    42    18    37    1
    43    19    38    1
    44    19    39    1
    45    20    40    1
    46    20    41    1
    47    20    42    1
    48    21    25    1
    49    21    43    1
    50    21    44    1
    51    22    46    1
    52    22    47    1
    53    22    48    1
    54    23    49    1
    55    23    50    1
    56    23    51    1
    57    24    26    1
    58    24    52    1
    59    24    53    1
    60    25    26    1
    61    25    54    1
    62    25    55    1
    63    26    57    1
