@<TRIPOS>MOLECULE
IMPHY016639
 46 46 0 0 0
SMALL
GASTEIGER

@<TRIPOS>ATOM
      1 O           2.2690    6.1735    0.0000 O.3     1  UNL1       -0.5065
      2 O           7.0749    1.0369    0.0000 O.3     2  UNL2       -0.4951
      3 C           2.2690    3.1735    0.0000 C.ar    1  UNL1       -0.0432
      4 C           1.4030    4.6735    0.0000 C.ar    1  UNL1       -0.0088
      5 C           1.4030    3.6735    0.0000 C.ar    1  UNL1       -0.0519
      6 C           2.2690    2.1735    0.0000 C.3     1  UNL1       -0.0097
      7 C           3.1350    3.6735    0.0000 C.ar    1  UNL1       -0.0548
      8 C           2.2690    5.1735    0.0000 C.ar    1  UNL1        0.1198
      9 C           3.1350    4.6735    0.0000 C.ar    1  UNL1       -0.0197
     10 C           7.0749    4.0369    0.0000 C.ar    2  UNL2       -0.0434
     11 C           7.0749    5.0369    0.0000 C.3     2  UNL2       -0.0097
     12 C           0.5369    5.1735    0.0000 C.3     1  UNL1       -0.0362
     13 C           7.9409    3.5369    0.0000 C.ar    2  UNL2       -0.0548
     14 C           6.2089    3.5369    0.0000 C.ar    2  UNL2       -0.0548
     15 C           3.1350    1.6735    0.0000 C.2     1  UNL1       -0.0868
     16 C           7.0749    2.0369    0.0000 C.ar    2  UNL2        0.1201
     17 C           7.9409    2.5369    0.0000 C.ar    2  UNL2       -0.0197
     18 C           6.2089    2.5369    0.0000 C.ar    2  UNL2       -0.0197
     19 C           7.9409    5.5369    0.0000 C.2     2  UNL2       -0.0868
     20 C           3.1350    0.6735    0.0000 C.2     1  UNL1       -0.1023
     21 C           7.9409    6.5369    0.0000 C.2     2  UNL2       -0.1023
     22 C           6.2089    0.5369    0.0000 C.3     2  UNL2        0.0788
     23 H           0.8660    3.3635    0.0000 H       1  UNL1        0.0624
     24 H           1.6584    2.2811    0.0000 H       1  UNL1        0.0355
     25 H           2.0569    1.5909    0.0000 H       1  UNL1        0.0355
     26 H           3.6720    3.3635    0.0000 H       1  UNL1        0.0622
     27 H           3.6720    4.9835    0.0000 H       1  UNL1        0.0654
     28 H           6.8629    5.6195    0.0000 H       2  UNL2        0.0355
     29 H           6.4643    4.9293    0.0000 H       2  UNL2        0.0355
     30 H           0.8469    5.7104    0.0000 H       1  UNL1        0.0279
     31 H           0.0000    5.4835    0.0000 H       1  UNL1        0.0279
     32 H           0.2269    4.6365    0.0000 H       1  UNL1        0.0279
     33 H           8.4779    3.8469    0.0000 H       2  UNL2        0.0622
     34 H           5.6720    3.8469    0.0000 H       2  UNL2        0.0622
     35 H           3.6720    1.9835    0.0000 H       1  UNL1        0.0570
     36 H           8.4779    2.2269    0.0000 H       2  UNL2        0.0654
     37 H           5.6720    2.2269    0.0000 H       2  UNL2        0.0654
     38 H           8.4779    5.2269    0.0000 H       2  UNL2        0.0570
     39 H           2.8059    6.4835    0.0000 H       1  UNL1        0.2921
     40 H           2.5981    0.3635    0.0000 H       1  UNL1        0.0532
     41 H           3.6720    0.3635    0.0000 H       1  UNL1        0.0532
     42 H           8.4779    6.8469    0.0000 H       2  UNL2        0.0532
     43 H           7.4040    6.8469    0.0000 H       2  UNL2        0.0532
     44 H           5.8989    1.0739    0.0000 H       2  UNL2        0.0660
     45 H           5.6720    0.2269    0.0000 H       2  UNL2        0.0660
     46 H           6.5189    0.0000    0.0000 H       2  UNL2        0.0660
@<TRIPOS>BOND
     1     1     8    1
     2     1    39    1
     3     2    16    1
     4     2    22    1
     5     3     5   ar
     6     3     6    1
     7     3     7   ar
     8     4     5   ar
     9     4     8   ar
    10     4    12    1
    11     5    23    1
    12     6    15    1
    13     6    24    1
    14     6    25    1
    15     7     9   ar
    16     7    26    1
    17     8     9   ar
    18     9    27    1
    19    10    11    1
    20    10    13   ar
    21    10    14   ar
    22    11    19    1
    23    11    28    1
    24    11    29    1
    25    12    30    1
    26    12    31    1
    27    12    32    1
    28    13    17   ar
    29    13    33    1
    30    14    18   ar
    31    14    34    1
    32    15    20    2
    33    15    35    1
    34    16    17   ar
    35    16    18   ar
    36    17    36    1
    37    18    37    1
    38    19    21    2
    39    19    38    1
    40    20    40    1
    41    20    41    1
    42    21    42    1
    43    21    43    1
    44    22    44    1
    45    22    45    1
    46    22    46    1
