@<TRIPOS>MOLECULE
IMPHY012627
 37 39 0 0 0
SMALL
GASTEIGER

@<TRIPOS>ATOM
      1 C           4.7266    0.2846    0.0000 C.3     1  UNL1        0.0014
      2 C           2.9945    1.2846    0.0000 C.3     1  UNL1       -0.0313
      3 C           2.9945    0.2846    0.0000 C.3     1  UNL1       -0.0102
      4 C           3.6775    0.4676    0.0000 C.3     1  UNL1       -0.0392
      5 C           3.8606   -0.2154    0.0000 C.2     1  UNL1       -0.0567
      6 C           4.7266    1.2846    0.0000 C.3     1  UNL1       -0.0426
      7 C           3.8606    1.7846    0.0000 C.3     1  UNL1       -0.0486
      8 C           5.6366   -0.2222    0.0000 C.3     1  UNL1       -0.0073
      9 C           2.0000    0.3892    0.0000 C.3     1  UNL1       -0.0558
     10 C           2.5878   -0.6289    0.0000 C.3     1  UNL1       -0.0558
     11 C           3.8445   -1.2569    0.0000 C.2     1  UNL1       -0.0617
     12 C           5.6446   -1.2638    0.0000 C.2     1  UNL1       -0.0775
     13 C           6.6365   -0.2107    0.0000 C.3     1  UNL1       -0.0555
     14 C           6.1265    0.6495    0.0000 C.3     1  UNL1       -0.0555
     15 C           4.7425   -1.7846    0.0000 C.2     1  UNL1       -0.0652
     16 H           2.4576    1.5946    0.0000 H       1  UNL1        0.0309
     17 H           3.1081    0.2224    0.0000 H       1  UNL1        0.0277
     18 H           3.7499   -0.1481    0.0000 H       1  UNL1        0.0277
     19 H           5.3372    1.1770    0.0000 H       1  UNL1        0.0274
     20 H           4.9386    1.8672    0.0000 H       1  UNL1        0.0274
     21 H           4.2591    2.2596    0.0000 H       1  UNL1        0.0268
     22 H           3.4620    2.2596    0.0000 H       1  UNL1        0.0268
     23 H           2.0648    1.0058    0.0000 H       1  UNL1        0.0238
     24 H           1.3834    0.4540    0.0000 H       1  UNL1        0.0238
     25 H           1.9352   -0.2274    0.0000 H       1  UNL1        0.0238
     26 H           2.0214   -0.3767    0.0000 H       1  UNL1        0.0238
     27 H           2.3356   -1.1953    0.0000 H       1  UNL1        0.0238
     28 H           3.1542   -0.8811    0.0000 H       1  UNL1        0.0238
     29 H           3.3040   -1.5607    0.0000 H       1  UNL1        0.0617
     30 H           6.1827   -1.5717    0.0000 H       1  UNL1        0.0578
     31 H           6.6437   -0.8306    0.0000 H       1  UNL1        0.0238
     32 H           7.2565   -0.2035    0.0000 H       1  UNL1        0.0238
     33 H           6.6293    0.4093    0.0000 H       1  UNL1        0.0238
     34 H           6.6670    0.3458    0.0000 H       1  UNL1        0.0238
     35 H           6.4303    1.1900    0.0000 H       1  UNL1        0.0238
     36 H           5.5860    0.9533    0.0000 H       1  UNL1        0.0238
     37 H           4.7401   -2.4046    0.0000 H       1  UNL1        0.0615
@<TRIPOS>BOND
     1     1     4    1
     2     1     5    1
     3     1     6    1
     4     1     8    1
     5     2     3    1
     6     2     4    1
     7     2     7    1
     8     2    16    1
     9     3     5    1
    10     3     9    1
    11     3    10    1
    12     4    17    1
    13     4    18    1
    14     5    11    2
    15     6     7    1
    16     6    19    1
    17     6    20    1
    18     7    21    1
    19     7    22    1
    20     8    12    1
    21     8    13    1
    22     8    14    1
    23     9    23    1
    24     9    24    1
    25     9    25    1
    26    10    26    1
    27    10    27    1
    28    10    28    1
    29    11    15    1
    30    11    29    1
    31    12    15    2
    32    12    30    1
    33    13    31    1
    34    13    32    1
    35    13    33    1
    36    14    34    1
    37    14    35    1
    38    14    36    1
    39    15    37    1
