@<TRIPOS>MOLECULE
IMPHY017273
 18 19 0 0 0
SMALL
GASTEIGER

@<TRIPOS>ATOM
      1 O           2.8639   -1.7425    0.0000 O.3     1  UNL1       -0.3875
      2 C           4.0501    0.1225    0.0000 C.3     1  UNL1       -0.0103
      3 C           4.3089    1.0885    0.0000 C.3     1  UNL1       -0.0221
      4 C           5.4490    0.1314    0.0000 C.3     1  UNL1       -0.0413
      5 C           3.5723    2.0711    0.0000 C.3     1  UNL1       -0.0413
      6 C           2.8290   -0.7431    0.0000 C.3     1  UNL1        0.0762
      7 C           2.2756    0.7773    0.0000 C.2     1  UNL1       -0.0824
      8 C           2.0000   -0.1839    0.0000 C.2     1  UNL1       -0.0593
      9 H           4.2401   -0.4676    0.0000 H       1  UNL1        0.0329
     10 H           4.7592    1.5146    0.0000 H       1  UNL1        0.0343
     11 H           5.6293   -0.4619    0.0000 H       1  UNL1        0.0274
     12 H           5.9663    0.4731    0.0000 H       1  UNL1        0.0274
     13 H           3.8901    2.6034    0.0000 H       1  UNL1        0.0274
     14 H           2.9591    2.1630    0.0000 H       1  UNL1        0.0274
     15 H           2.2868   -1.0437    0.0000 H       1  UNL1        0.0640
     16 H           1.8660    1.2428    0.0000 H       1  UNL1        0.0573
     17 H           1.4174   -0.3960    0.0000 H       1  UNL1        0.0595
     18 H           2.3382   -2.0711    0.0000 H       1  UNL1        0.2102
@<TRIPOS>BOND
     1     1     6    1
     2     1    18    1
     3     2     4    1
     4     2     5    1
     5     2     6    1
     6     2     9    1
     7     3     4    1
     8     3     5    1
     9     3     7    1
    10     3    10    1
    11     4    11    1
    12     4    12    1
    13     5    13    1
    14     5    14    1
    15     6     8    1
    16     6    15    1
    17     7     8    2
    18     7    16    1
    19     8    17    1
