@<TRIPOS>MOLECULE
IMPHY003254
 31 33 0 0 0
SMALL
GASTEIGER

@<TRIPOS>ATOM
      1 O           6.4144    1.7623    0.0000 O.3     1  UNL1       -0.4941
      2 O           4.6660    1.7277    0.0000 O.2     1  UNL1       -0.2865
      3 O           4.6660   -2.2723    0.0000 O.2     1  UNL1       -0.2866
      4 C           5.5321    0.2277    0.0000 C.ar    1  UNL1        0.0749
      5 C           5.5321   -0.7723    0.0000 C.ar    1  UNL1        0.0366
      6 C           3.8000    0.2277    0.0000 C.ar    1  UNL1        0.0332
      7 C           3.8000   -0.7723    0.0000 C.ar    1  UNL1        0.0331
      8 C           6.4260    0.7624    0.0000 C.ar    1  UNL1        0.1345
      9 C           4.6660    0.7277    0.0000 C.2     1  UNL1        0.1980
     10 C           4.6660   -1.2723    0.0000 C.2     1  UNL1        0.1946
     11 C           7.3321    0.2485    0.0000 C.ar    1  UNL1       -0.0081
     12 C           6.4260   -1.3070    0.0000 C.ar    1  UNL1       -0.0498
     13 C           7.3321   -0.7931    0.0000 C.ar    1  UNL1       -0.0547
     14 C           2.9061    0.7624    0.0000 C.ar    1  UNL1       -0.0502
     15 C           2.9061   -1.3070    0.0000 C.ar    1  UNL1       -0.0502
     16 C           8.1962    0.7519    0.0000 C.3     1  UNL1       -0.0362
     17 C           2.0000    0.2485    0.0000 C.ar    1  UNL1       -0.0610
     18 C           2.0000   -0.7931    0.0000 C.ar    1  UNL1       -0.0610
     19 C           7.2746    2.2723    0.0000 C.3     1  UNL1        0.0788
     20 H           6.4188   -1.9269    0.0000 H       1  UNL1        0.0625
     21 H           7.8678   -1.1052    0.0000 H       1  UNL1        0.0622
     22 H           2.9132    1.3823    0.0000 H       1  UNL1        0.0625
     23 H           2.9132   -1.9269    0.0000 H       1  UNL1        0.0625
     24 H           8.5082    0.2161    0.0000 H       1  UNL1        0.0279
     25 H           8.7319    1.0639    0.0000 H       1  UNL1        0.0279
     26 H           7.8841    1.2876    0.0000 H       1  UNL1        0.0279
     27 H           1.4643    0.5606    0.0000 H       1  UNL1        0.0618
     28 H           1.4643   -1.1052    0.0000 H       1  UNL1        0.0618
     29 H           7.5908    1.7390    0.0000 H       1  UNL1        0.0660
     30 H           7.8079    2.5885    0.0000 H       1  UNL1        0.0660
     31 H           6.9584    2.8056    0.0000 H       1  UNL1        0.0660
@<TRIPOS>BOND
     1     1     8    1
     2     1    19    1
     3     2     9    2
     4     3    10    2
     5     4     5   ar
     6     4     8   ar
     7     4     9    1
     8     5    10    1
     9     5    12   ar
    10     6     7   ar
    11     6     9    1
    12     6    14   ar
    13     7    10    1
    14     7    15   ar
    15     8    11   ar
    16    11    13   ar
    17    11    16    1
    18    12    13   ar
    19    12    20    1
    20    13    21    1
    21    14    17   ar
    22    14    22    1
    23    15    18   ar
    24    15    23    1
    25    16    24    1
    26    16    25    1
    27    16    26    1
    28    17    18   ar
    29    17    27    1
    30    18    28    1
    31    19    29    1
    32    19    30    1
    33    19    31    1
