@<TRIPOS>MOLECULE
IMPHY001141
 80 84 0 0 0
SMALL
GASTEIGER

@<TRIPOS>ATOM
      1 O           2.0000   -3.2456    0.0000 O.2     1  UNL1       -0.2968
      2 O          11.5604    1.6809    0.0000 O.3     1  UNL1       -0.3915
      3 C           5.5301   -1.2214    0.0000 C.3     1  UNL1       -0.0194
      4 C           4.6641   -1.7214    0.0000 C.3     1  UNL1       -0.0187
      5 C           4.6638   -0.7210    0.0000 C.3     1  UNL1       -0.0401
      6 C           6.3961   -1.7214    0.0000 C.3     1  UNL1       -0.0289
      7 C           4.6641   -2.7214    0.0000 C.3     1  UNL1       -0.0230
      8 C           7.3062   -1.2146    0.0000 C.3     1  UNL1       -0.0228
      9 C           5.5141   -0.1799    0.0000 C.3     1  UNL1       -0.0460
     10 C           7.3142   -0.1730    0.0000 C.3     1  UNL1       -0.0199
     11 C           3.7702   -1.1868    0.0000 C.3     1  UNL1       -0.0399
     12 C           6.3961   -2.7214    0.0000 C.3     1  UNL1       -0.0489
     13 C           5.5301   -3.2214    0.0000 C.3     1  UNL1       -0.0485
     14 C           6.4121    0.3478    0.0000 C.3     1  UNL1       -0.0460
     15 C           3.7702   -3.2561    0.0000 C.3     1  UNL1        0.0267
     16 C           8.2893   -1.5396    0.0000 C.3     1  UNL1       -0.0463
     17 C           8.3022    0.1368    0.0000 C.3     1  UNL1       -0.0142
     18 C           2.8641   -1.7006    0.0000 C.3     1  UNL1        0.0069
     19 C           8.9036   -0.7061    0.0000 C.3     1  UNL1       -0.0455
     20 C           7.2984   -2.2146    0.0000 C.3     1  UNL1       -0.0588
     21 C           2.8641   -2.7423    0.0000 C.2     1  UNL1        0.1392
     22 C           7.3219    0.8270    0.0000 C.3     1  UNL1       -0.0585
     23 C           3.2802   -4.1279    0.0000 C.3     1  UNL1       -0.0528
     24 C           4.2801   -4.1163    0.0000 C.3     1  UNL1       -0.0528
     25 C           8.6202    1.0849    0.0000 C.2     1  UNL1       -0.0729
     26 C           9.6003    1.2836    0.0000 C.3     1  UNL1       -0.0294
     27 C           7.9581    1.8343    0.0000 C.2     1  UNL1       -0.0992
     28 C           9.9182    2.2317    0.0000 C.3     1  UNL1       -0.0229
     29 C          10.8983    2.4303    0.0000 C.3     1  UNL1        0.0578
     30 C          11.2163    3.3784    0.0000 C.3     1  UNL1       -0.0206
     31 C          12.1964    3.5771    0.0000 C.3     1  UNL1       -0.0603
     32 C          10.5542    4.1279    0.0000 C.3     1  UNL1       -0.0603
     33 H           4.8759   -0.1384    0.0000 H       1  UNL1        0.0276
     34 H           4.0532   -0.6134    0.0000 H       1  UNL1        0.0276
     35 H           7.1290   -2.1521    0.0000 H       1  UNL1        0.0312
     36 H           4.6706   -3.5714    0.0000 H       1  UNL1        0.0316
     37 H           5.2960    0.4005    0.0000 H       1  UNL1        0.0271
     38 H           4.9049   -0.2954    0.0000 H       1  UNL1        0.0271
     39 H           4.1748   -0.7170    0.0000 H       1  UNL1        0.0275
     40 H           3.3765   -0.7078    0.0000 H       1  UNL1        0.0275
     41 H           6.6082   -3.3041    0.0000 H       1  UNL1        0.0268
     42 H           7.0067   -2.6138    0.0000 H       1  UNL1        0.0268
     43 H           5.1316   -3.6964    0.0000 H       1  UNL1        0.0268
     44 H           5.9286   -3.6964    0.0000 H       1  UNL1        0.0268
     45 H           6.8094    0.8238    0.0000 H       1  UNL1        0.0271
     46 H           6.0111    0.8207    0.0000 H       1  UNL1        0.0271
     47 H           8.0339   -2.1046    0.0000 H       1  UNL1        0.0271
     48 H           8.8243   -1.8530    0.0000 H       1  UNL1        0.0271
     49 H           7.8682    0.5795    0.0000 H       1  UNL1        0.0351
     50 H           2.6550   -1.1170    0.0000 H       1  UNL1        0.0342
     51 H           2.2532   -1.8067    0.0000 H       1  UNL1        0.0342
     52 H           9.3613   -1.1244    0.0000 H       1  UNL1        0.0271
     53 H           9.3677   -0.2949    0.0000 H       1  UNL1        0.0271
     54 H           6.6785   -2.2098    0.0000 H       1  UNL1        0.0235
     55 H           7.2937   -2.8346    0.0000 H       1  UNL1        0.0235
     56 H           7.9184   -2.2194    0.0000 H       1  UNL1        0.0235
     57 H           7.9419    0.8222    0.0000 H       1  UNL1        0.0235
     58 H           7.3267    1.4470    0.0000 H       1  UNL1        0.0235
     59 H           6.7019    0.8317    0.0000 H       1  UNL1        0.0235
     60 H           2.7397   -3.8241    0.0000 H       1  UNL1        0.0239
     61 H           3.7468   -4.4325    0.0000 H       1  UNL1        0.0239
     62 H           4.5963   -4.6496    0.0000 H       1  UNL1        0.0239
     63 H           2.9764   -4.6684    0.0000 H       1  UNL1        0.0239
     64 H           3.8207   -4.4316    0.0000 H       1  UNL1        0.0239
     65 H           4.8134   -3.8001    0.0000 H       1  UNL1        0.0239
     66 H           9.6160    0.6638    0.0000 H       1  UNL1        0.0311
     67 H          10.2134    1.1915    0.0000 H       1  UNL1        0.0311
     68 H           8.1552    2.4221    0.0000 H       1  UNL1        0.0534
     69 H           7.3505    1.7112    0.0000 H       1  UNL1        0.0534
     70 H           9.9024    2.8515    0.0000 H       1  UNL1        0.0293
     71 H           9.3051    2.3238    0.0000 H       1  UNL1        0.0293
     72 H          10.7012    1.8425    0.0000 H       1  UNL1        0.0596
     73 H          10.6086    3.2553    0.0000 H       1  UNL1        0.0320
     74 H          12.1680    1.8041    0.0000 H       1  UNL1        0.2098
     75 H          11.0188    4.5384    0.0000 H       1  UNL1        0.0233
     76 H          10.1437    4.5925    0.0000 H       1  UNL1        0.0233
     77 H          10.0896    3.7174    0.0000 H       1  UNL1        0.0233
     78 H          12.3195    2.9695    0.0000 H       1  UNL1        0.0233
     79 H          12.8040    3.7003    0.0000 H       1  UNL1        0.0233
     80 H          12.0732    4.1848    0.0000 H       1  UNL1        0.0233
@<TRIPOS>BOND
     1     1    21    2
     2     2    29    1
     3     2    74    1
     4     3     4    1
     5     3     5    1
     6     3     6    1
     7     3     9    1
     8     4     5    1
     9     4     7    1
    10     4    11    1
    11     5    33    1
    12     5    34    1
    13     6     8    1
    14     6    12    1
    15     6    35    1
    16     7    13    1
    17     7    15    1
    18     7    36    1
    19     8    10    1
    20     8    16    1
    21     8    20    1
    22     9    14    1
    23     9    37    1
    24     9    38    1
    25    10    14    1
    26    10    17    1
    27    10    22    1
    28    11    18    1
    29    11    39    1
    30    11    40    1
    31    12    13    1
    32    12    41    1
    33    12    42    1
    34    13    43    1
    35    13    44    1
    36    14    45    1
    37    14    46    1
    38    15    21    1
    39    15    23    1
    40    15    24    1
    41    16    19    1
    42    16    47    1
    43    16    48    1
    44    17    19    1
    45    17    25    1
    46    17    49    1
    47    18    21    1
    48    18    50    1
    49    18    51    1
    50    19    52    1
    51    19    53    1
    52    20    54    1
    53    20    55    1
    54    20    56    1
    55    22    57    1
    56    22    58    1
    57    22    59    1
    58    23    60    1
    59    23    63    1
    60    23    64    1
    61    24    61    1
    62    24    62    1
    63    24    65    1
    64    25    26    1
    65    25    27    2
    66    26    28    1
    67    26    66    1
    68    26    67    1
    69    27    68    1
    70    27    69    1
    71    28    29    1
    72    28    70    1
    73    28    71    1
    74    29    30    1
    75    29    72    1
    76    30    31    1
    77    30    32    1
    78    30    73    1
    79    31    78    1
    80    31    79    1
    81    31    80    1
    82    32    75    1
    83    32    76    1
    84    32    77    1
