@<TRIPOS>MOLECULE
IMPHY001011
 54 57 0 0 0
SMALL
GASTEIGER

@<TRIPOS>ATOM
      1 O           5.1350   -0.6121    0.0000 O.3     1  UNL1       -0.3313
      2 O           6.8671   -0.6121    0.0000 O.3     1  UNL1       -0.4562
      3 O           5.1350   -3.6121    0.0000 O.3     1  UNL1       -0.3864
      4 O           3.4030   -2.6121    0.0000 O.3     1  UNL1       -0.3865
      5 O           6.8671   -2.6121    0.0000 O.3     1  UNL1       -0.3829
      6 O           8.6270    2.4226    0.0000 O.3     1  UNL1       -0.4828
      7 O           2.5369   -1.1121    0.0000 O.3     1  UNL1       -0.3924
      8 O           5.1350    0.3879    0.0000 O.3     1  UNL1       -0.5009
      9 O           8.6155   -0.6467    0.0000 O.2     1  UNL1       -0.2917
     10 O           5.1350    2.3879    0.0000 O.3     1  UNL1       -0.5031
     11 O          12.9895    3.9221    0.0000 O.3     1  UNL1       -0.5068
     12 C           5.1350   -2.6121    0.0000 C.3     1  UNL1        0.1152
     13 C           4.2690   -2.1121    0.0000 C.3     1  UNL1        0.1120
     14 C           6.0010   -2.1121    0.0000 C.3     1  UNL1        0.1454
     15 C           4.2690   -1.1121    0.0000 C.3     1  UNL1        0.1140
     16 C           6.0010   -1.1121    0.0000 C.3     1  UNL1        0.2310
     17 C           3.4030   -0.6121    0.0000 C.3     1  UNL1        0.0731
     18 C           6.8671    0.3879    0.0000 C.ar    1  UNL1        0.1828
     19 C           7.7331    0.8879    0.0000 C.ar    1  UNL1        0.1047
     20 C           9.5331    1.9087    0.0000 C.3     1  UNL1        0.1322
     21 C           9.5331    0.8671    0.0000 C.3     1  UNL1        0.0520
     22 C           7.7331    1.8879    0.0000 C.ar    1  UNL1        0.1391
     23 C           8.6270    0.3533    0.0000 C.2     1  UNL1        0.1742
     24 C           6.0010    0.8879    0.0000 C.ar    1  UNL1        0.2019
     25 C          10.3972    2.4121    0.0000 C.ar    1  UNL1       -0.0067
     26 C           6.8671    2.3879    0.0000 C.ar    1  UNL1        0.0262
     27 C           6.0010    1.8879    0.0000 C.ar    1  UNL1        0.1655
     28 C          11.2651    1.9154    0.0000 C.ar    1  UNL1       -0.0516
     29 C          10.3933    3.4121    0.0000 C.ar    1  UNL1       -0.0516
     30 C          12.1292    2.4188    0.0000 C.ar    1  UNL1       -0.0198
     31 C          11.2574    3.9154    0.0000 C.ar    1  UNL1       -0.0198
     32 C          12.1254    3.4187    0.0000 C.ar    1  UNL1        0.1169
     33 H           5.6720   -2.9221    0.0000 H       1  UNL1        0.0648
     34 H           4.2690   -2.7321    0.0000 H       1  UNL1        0.0647
     35 H           6.5380   -1.8021    0.0000 H       1  UNL1        0.0683
     36 H           4.2690   -0.4921    0.0000 H       1  UNL1        0.0647
     37 H           6.0010   -0.4921    0.0000 H       1  UNL1        0.1084
     38 H           3.8015   -0.1371    0.0000 H       1  UNL1        0.0584
     39 H           3.0044   -0.1371    0.0000 H       1  UNL1        0.0584
     40 H           4.5981   -3.9221    0.0000 H       1  UNL1        0.2100
     41 H           3.4030   -3.2321    0.0000 H       1  UNL1        0.2100
     42 H           6.8671   -3.2321    0.0000 H       1  UNL1        0.2102
     43 H           9.5295    2.5287    0.0000 H       1  UNL1        0.0789
     44 H           9.7422    0.2834    0.0000 H       1  UNL1        0.0385
     45 H          10.1440    0.9732    0.0000 H       1  UNL1        0.0385
     46 H           2.0000   -0.8021    0.0000 H       1  UNL1        0.2095
     47 H           6.8671    3.0079    0.0000 H       1  UNL1        0.0692
     48 H          11.2675    1.2954    0.0000 H       1  UNL1        0.0623
     49 H           9.8552    3.7200    0.0000 H       1  UNL1        0.0623
     50 H           4.5981    0.6979    0.0000 H       1  UNL1        0.2924
     51 H          12.6674    2.1108    0.0000 H       1  UNL1        0.0654
     52 H          11.2550    4.5354    0.0000 H       1  UNL1        0.0654
     53 H           5.1350    3.0079    0.0000 H       1  UNL1        0.2923
     54 H          13.5276    3.6142    0.0000 H       1  UNL1        0.2921
@<TRIPOS>BOND
     1     1    15    1
     2     1    16    1
     3    16     2    1
     4     2    18    1
     5    12     3    1
     6     3    40    1
     7    13     4    1
     8     4    41    1
     9    14     5    1
    10     5    42    1
    11     6    20    1
    12     6    22    1
    13     7    17    1
    14     7    46    1
    15     8    24    1
    16     8    50    1
    17     9    23    2
    18    10    27    1
    19    10    53    1
    20    11    32    1
    21    11    54    1
    22    12    13    1
    23    12    14    1
    24    12    33    1
    25    13    15    1
    26    13    34    1
    27    14    16    1
    28    14    35    1
    29    15    17    1
    30    15    36    1
    31    16    37    1
    32    17    38    1
    33    17    39    1
    34    18    19   ar
    35    18    24   ar
    36    19    22   ar
    37    19    23    1
    38    20    21    1
    39    20    25    1
    40    20    43    1
    41    21    23    1
    42    21    44    1
    43    21    45    1
    44    22    26   ar
    45    24    27   ar
    46    25    28   ar
    47    25    29   ar
    48    26    27   ar
    49    26    47    1
    50    28    30   ar
    51    28    48    1
    52    29    31   ar
    53    29    49    1
    54    30    32   ar
    55    30    51    1
    56    31    32   ar
    57    31    52    1
