@<TRIPOS>MOLECULE
IMPHY000582
 32 35 0 0 0
SMALL
GASTEIGER

@<TRIPOS>ATOM
      1 O           2.5836   -0.1005    0.0000 O.3     1  UNL1       -0.4520
      2 O           2.5836    1.5089    0.0000 O.3     1  UNL1       -0.4526
      3 O           4.9611    2.9099    0.0000 O.3     1  UNL1       -0.4771
      4 O           6.5887    2.3175    0.0000 O.2     1  UNL1       -0.2451
      5 O           7.5115   -1.4006    0.0000 O.co2   1  UNL1       -0.5760
      6 O           7.7925    0.3085    0.0000 O.2     1  UNL1        0.0415
      7 N           7.1586   -0.4649    0.0000 N.pl3   1  UNL1        0.0803
      8 C           4.3958   -0.2958    0.0000 C.ar    1  UNL1        0.0426
      9 C           5.2619    0.2042    0.0000 C.ar    1  UNL1        0.0775
     10 C           4.3798   -1.3373    0.0000 C.ar    1  UNL1       -0.0061
     11 C           3.5298    0.2042    0.0000 C.ar    1  UNL1        0.1747
     12 C           5.2778   -1.8651    0.0000 C.ar    1  UNL1       -0.0108
     13 C           5.2619    1.2042    0.0000 C.ar    1  UNL1        0.0767
     14 C           6.1719   -0.3027    0.0000 C.ar    1  UNL1        0.2823
     15 C           3.5298    1.2042    0.0000 C.ar    1  UNL1        0.1677
     16 C           6.1799   -1.3443    0.0000 C.ar    1  UNL1        0.0240
     17 C           4.3958    1.7042    0.0000 C.ar    1  UNL1       -0.0013
     18 C           3.4279   -1.8579    0.0000 C.ar    1  UNL1       -0.0533
     19 C           2.0000    0.7042    0.0000 C.3     1  UNL1        0.2333
     20 C           5.2862   -2.9500    0.0000 C.ar    1  UNL1       -0.0538
     21 C           3.4111   -2.9428    0.0000 C.ar    1  UNL1       -0.0611
     22 C           4.3466   -3.4925    0.0000 C.ar    1  UNL1       -0.0612
     23 C           5.6039    2.1439    0.0000 C.2     1  UNL1        0.3377
     24 H           6.7180   -1.6522    0.0000 H       1  UNL1        0.0692
     25 H           4.3958    2.3242    0.0000 H       1  UNL1        0.0664
     26 H           2.8970   -1.5376    0.0000 H       1  UNL1        0.0624
     27 H           1.5391    1.1189    0.0000 H       1  UNL1        0.1166
     28 H           1.5391    0.2895    0.0000 H       1  UNL1        0.1166
     29 H           5.8243   -3.2580    0.0000 H       1  UNL1        0.0624
     30 H           2.8707   -3.2466    0.0000 H       1  UNL1        0.0618
     31 H           4.3442   -4.1125    0.0000 H       1  UNL1        0.0618
     32 H           5.1732    3.4925    0.0000 H       1  UNL1        0.2954
@<TRIPOS>UNITY_ATOM_ATTR
5 1
charge -1
7 1
charge 1
@<TRIPOS>BOND
     1     1    11    1
     2     1    19    1
     3     2    15    1
     4     2    19    1
     5     3    23    1
     6     3    32    1
     7     4    23    2
     8     5     7    1
     9     6     7    2
    10     7    14    1
    11     8     9   ar
    12     8    10   ar
    13     8    11   ar
    14     9    13   ar
    15     9    14   ar
    16    10    12   ar
    17    10    18   ar
    18    11    15   ar
    19    12    16   ar
    20    12    20   ar
    21    13    17   ar
    22    13    23    1
    23    14    16   ar
    24    15    17   ar
    25    16    24    1
    26    17    25    1
    27    18    21   ar
    28    18    26    1
    29    19    27    1
    30    19    28    1
    31    20    22   ar
    32    20    29    1
    33    21    22   ar
    34    21    30    1
    35    22    31    1
