@<TRIPOS>MOLECULE
IMPHY016652
 13 12 0 0 0
SMALL
GASTEIGER

@<TRIPOS>ATOM
      1 S           3.7320   -0.2500    0.0000 S.3     1  UNL1       -0.0937
      2 S           4.5981    0.2500    0.0000 S.3     1  UNL1       -0.0965
      3 C           2.8660    0.2500    0.0000 C.3     1  UNL1        0.0011
      4 C           2.0000   -0.2500    0.0000 C.3     1  UNL1       -0.0554
      5 C           5.4641   -0.2500    0.0000 C.3     1  UNL1       -0.0078
      6 H           3.2646    0.7249    0.0000 H       1  UNL1        0.0382
      7 H           2.4675    0.7249    0.0000 H       1  UNL1        0.0382
      8 H           1.6900    0.2869    0.0000 H       1  UNL1        0.0238
      9 H           1.4631   -0.5600    0.0000 H       1  UNL1        0.0238
     10 H           2.3100   -0.7869    0.0000 H       1  UNL1        0.0238
     11 H           5.1541   -0.7869    0.0000 H       1  UNL1        0.0349
     12 H           6.0010   -0.5600    0.0000 H       1  UNL1        0.0349
     13 H           5.7741    0.2869    0.0000 H       1  UNL1        0.0349
@<TRIPOS>BOND
     1     1     2    1
     2     1     3    1
     3     2     5    1
     4     3     4    1
     5     3     6    1
     6     3     7    1
     7     4     8    1
     8     4     9    1
     9     4    10    1
    10     5    11    1
    11     5    12    1
    12     5    13    1
