@<TRIPOS>MOLECULE
IMPHY012312
 27 26 0 0 0
SMALL
GASTEIGER

@<TRIPOS>ATOM
      1 O           5.4641    0.2500    0.0000 O.3     1  UNL1       -0.4611
      2 O           6.3301   -1.2500    0.0000 O.2     1  UNL1       -0.2453
      3 C           3.7320    0.2500    0.0000 C.3     1  UNL1       -0.0097
      4 C           2.8660   -0.2500    0.0000 C.3     1  UNL1       -0.0502
      5 C           4.5981   -0.2500    0.0000 C.3     1  UNL1        0.0953
      6 C           3.7320    1.2500    0.0000 C.3     1  UNL1       -0.0593
      7 C           2.0000    0.2500    0.0000 C.3     1  UNL1       -0.0649
      8 C           6.3301   -0.2500    0.0000 C.2     1  UNL1        0.3343
      9 C           7.1962    0.2500    0.0000 C.2     1  UNL1        0.0264
     10 C           8.0622   -0.2500    0.0000 C.3     1  UNL1       -0.0335
     11 C           7.1962    1.2500    0.0000 C.2     1  UNL1       -0.0890
     12 H           4.2690    0.5600    0.0000 H       1  UNL1        0.0331
     13 H           2.4675   -0.7249    0.0000 H       1  UNL1        0.0266
     14 H           3.2646   -0.7249    0.0000 H       1  UNL1        0.0266
     15 H           4.1996   -0.7249    0.0000 H       1  UNL1        0.0700
     16 H           4.9966   -0.7249    0.0000 H       1  UNL1        0.0700
     17 H           4.3520    1.2500    0.0000 H       1  UNL1        0.0233
     18 H           3.7320    1.8700    0.0000 H       1  UNL1        0.0233
     19 H           3.1120    1.2500    0.0000 H       1  UNL1        0.0233
     20 H           2.3100    0.7869    0.0000 H       1  UNL1        0.0230
     21 H           1.4631    0.5600    0.0000 H       1  UNL1        0.0230
     22 H           1.6900   -0.2869    0.0000 H       1  UNL1        0.0230
     23 H           7.7522   -0.7869    0.0000 H       1  UNL1        0.0280
     24 H           8.5991   -0.5600    0.0000 H       1  UNL1        0.0280
     25 H           8.3722    0.2869    0.0000 H       1  UNL1        0.0280
     26 H           7.7331    1.5600    0.0000 H       1  UNL1        0.0540
     27 H           6.6592    1.5600    0.0000 H       1  UNL1        0.0540
@<TRIPOS>BOND
     1     1     5    1
     2     1     8    1
     3     2     8    2
     4     3     4    1
     5     3     5    1
     6     3     6    1
     7     3    12    1
     8     4     7    1
     9     4    13    1
    10     4    14    1
    11     5    15    1
    12     5    16    1
    13     6    17    1
    14     6    18    1
    15     6    19    1
    16     7    20    1
    17     7    21    1
    18     7    22    1
    19     8     9    1
    20     9    10    1
    21     9    11    2
    22    10    23    1
    23    10    24    1
    24    10    25    1
    25    11    26    1
    26    11    27    1
