@<TRIPOS>MOLECULE
IMPHY012203
 19 19 0 0 0
SMALL
GASTEIGER

@<TRIPOS>ATOM
      1 O           2.8660    2.0950    0.0000 O.3     1  UNL1       -0.4773
      2 O           2.0000    0.5950    0.0000 O.2     1  UNL1       -0.2454
      3 O           5.4641   -2.4050    0.0000 O.2     1  UNL1       -0.1260
      4 N           4.5981   -0.9050    0.0000 N.pl3   1  UNL1       -0.2154
      5 N           4.5981   -1.9050    0.0000 N.2     1  UNL1        0.0447
      6 C           5.4641   -0.4050    0.0000 C.3     1  UNL1        0.0364
      7 C           5.4641    0.5950    0.0000 C.3     1  UNL1       -0.0165
      8 C           3.7320   -0.4050    0.0000 C.3     1  UNL1        0.0641
      9 C           3.7320    0.5950    0.0000 C.2     1  UNL1        0.0513
     10 C           4.5981    1.0950    0.0000 C.2     1  UNL1       -0.0709
     11 C           2.8660    1.0950    0.0000 C.2     1  UNL1        0.3340
     12 H           5.6762   -0.9876    0.0000 H       1  UNL1        0.0484
     13 H           6.0747   -0.2973    0.0000 H       1  UNL1        0.0484
     14 H           6.0747    0.4873    0.0000 H       1  UNL1        0.0323
     15 H           5.6762    1.1776    0.0000 H       1  UNL1        0.0323
     16 H           3.1215   -0.2973    0.0000 H       1  UNL1        0.0532
     17 H           3.5200   -0.9876    0.0000 H       1  UNL1        0.0532
     18 H           4.5981    1.7150    0.0000 H       1  UNL1        0.0578
     19 H           2.3291    2.4050    0.0000 H       1  UNL1        0.2954
@<TRIPOS>BOND
     1     1    11    1
     2     1    19    1
     3     2    11    2
     4     3     5    2
     5     4     5    1
     6     4     6    1
     7     4     8    1
     8     6     7    1
     9     6    12    1
    10     6    13    1
    11     7    10    1
    12     7    14    1
    13     7    15    1
    14     8     9    1
    15     8    16    1
    16     8    17    1
    17     9    10    2
    18     9    11    1
    19    10    18    1
