@<TRIPOS>MOLECULE
IMPHY008390
 63 66 0 0 0
SMALL
GASTEIGER

@<TRIPOS>ATOM
      1 O           6.5682   -1.8601    0.0000 O.3     1  UNL1       -0.3430
      2 O           6.7110    2.4448    0.0000 O.3     1  UNL1       -0.3908
      3 O           7.8767   -0.9439    0.0000 O.3     1  UNL1       -0.3664
      4 O           2.5381    1.7029    0.0000 O.3     1  UNL1       -0.3906
      5 O           3.8362   -1.1873    0.0000 O.2     1  UNL1       -0.3004
      6 O           8.5619    0.7712    0.0000 O.3     1  UNL1       -0.3947
      7 O           4.2625    2.5208    0.0000 O.2     1  UNL1       -0.3003
      8 O           2.6876    2.3246    0.0000 O.3     1  UNL1       -0.4801
      9 O           4.0273    3.4225    0.0000 O.2     1  UNL1       -0.2502
     10 O           5.9469    3.8875    0.0000 O.3     1  UNL1       -0.4806
     11 O           4.2447    4.2079    0.0000 O.2     1  UNL1       -0.2510
     12 O           4.4805   -4.2079    0.0000 O.2     1  UNL1       -0.4707
     13 C           5.2022    0.1788    0.0000 C.3     1  UNL1        0.0522
     14 C           6.0682   -0.3212    0.0000 C.3     1  UNL1        0.0422
     15 C           5.2022    1.1788    0.0000 C.3     1  UNL1        0.0830
     16 C           6.9343    0.1788    0.0000 C.3     1  UNL1       -0.0042
     17 C           4.3083    1.7134    0.0000 C.3     1  UNL1        0.1184
     18 C           6.0682    1.6788    0.0000 C.3     1  UNL1        0.0697
     19 C           4.3083   -0.3559    0.0000 C.3     1  UNL1       -0.0368
     20 C           6.9343    1.1788    0.0000 C.3     1  UNL1       -0.0203
     21 C           5.2592   -0.9090    0.0000 C.3     1  UNL1       -0.0107
     22 C           6.8773   -0.9090    0.0000 C.3     1  UNL1        0.1639
     23 C           3.4022    1.1996    0.0000 C.3     1  UNL1        0.0725
     24 C           3.4022    0.1579    0.0000 C.3     1  UNL1       -0.0248
     25 C           5.5682   -1.8601    0.0000 C.3     1  UNL1        0.0902
     26 C           4.7023   -0.6873    0.0000 C.2     1  UNL1        0.1282
     27 C           5.2022    2.1788    0.0000 C.2     1  UNL1        0.1310
     28 C           4.8183    2.5736    0.0000 C.3     1  UNL1        0.0639
     29 C           7.9191    0.0051    0.0000 C.3     1  UNL1        0.0478
     30 C           3.6744    2.4868    0.0000 C.2     1  UNL1        0.3150
     31 C           4.9805   -2.6691    0.0000 C.ar    1  UNL1        0.0189
     32 C           5.0033    3.5563    0.0000 C.2     1  UNL1        0.3059
     33 C           3.9805   -2.6691    0.0000 C.ar    1  UNL1       -0.0183
     34 C           5.2895   -3.6202    0.0000 C.ar    1  UNL1        0.0973
     35 C           3.6714   -3.6202    0.0000 C.ar    1  UNL1        0.0920
     36 H           7.0419   -0.4318    0.0000 H       1  UNL1        0.0331
     37 H           5.6697    2.1537    0.0000 H       1  UNL1        0.0603
     38 H           3.9147   -0.8349    0.0000 H       1  UNL1        0.0276
     39 H           4.7129   -0.8257    0.0000 H       1  UNL1        0.0276
     40 H           7.5449    1.0711    0.0000 H       1  UNL1        0.0294
     41 H           7.1463    1.7614    0.0000 H       1  UNL1        0.0294
     42 H           4.9492   -0.3721    0.0000 H       1  UNL1        0.0301
     43 H           4.6928   -1.1612    0.0000 H       1  UNL1        0.0301
     44 H           7.0791   -0.3228    0.0000 H       1  UNL1        0.0914
     45 H           3.4058    1.8196    0.0000 H       1  UNL1        0.0604
     46 H           2.7914    0.2640    0.0000 H       1  UNL1        0.0291
     47 H           3.1932   -0.4257    0.0000 H       1  UNL1        0.0291
     48 H           5.8497   -2.4125    0.0000 H       1  UNL1        0.0648
     49 H           4.7023   -1.3072    0.0000 H       1  UNL1        0.1033
     50 H           5.7392    2.4888    0.0000 H       1  UNL1        0.1034
     51 H           5.1827    2.0720    0.0000 H       1  UNL1        0.0389
     52 H           4.2382    2.7924    0.0000 H       1  UNL1        0.0389
     53 H           7.7070   -0.5775    0.0000 H       1  UNL1        0.0560
     54 H           8.4560   -0.3049    0.0000 H       1  UNL1        0.0560
     55 H           7.3216    2.3371    0.0000 H       1  UNL1        0.2098
     56 H           8.1677   -1.4914    0.0000 H       1  UNL1        0.2125
     57 H           2.0000    1.3950    0.0000 H       1  UNL1        0.2098
     58 H           9.1724    0.6635    0.0000 H       1  UNL1        0.2094
     59 H           2.2946    2.8041    0.0000 H       1  UNL1        0.2951
     60 H           3.6160   -2.1675    0.0000 H       1  UNL1        0.0652
     61 H           5.8791   -3.8118    0.0000 H       1  UNL1        0.1033
     62 H           6.4172    3.4835    0.0000 H       1  UNL1        0.2951
     63 H           3.0818   -3.8118    0.0000 H       1  UNL1        0.1029
@<TRIPOS>BOND
     1     1    22    1
     2     1    25    1
     3    18     2    1
     4     2    55    1
     5    22     3    1
     6     3    56    1
     7    23     4    1
     8     4    57    1
     9     5    26    2
    10     6    29    1
    11     6    58    1
    12     7    27    2
    13     8    30    1
    14     8    59    1
    15     9    30    2
    16    10    32    1
    17    10    62    1
    18    11    32    2
    19    12    34   ar
    20    12    35   ar
    21    13    14    1
    22    13    15    1
    23    13    19    1
    24    13    26    1
    25    14    16    1
    26    14    21    1
    27    14    22    1
    28    15    17    1
    29    15    18    1
    30    15    27    1
    31    16    20    1
    32    16    29    1
    33    16    36    1
    34    17    23    1
    35    17    28    1
    36    17    30    1
    37    18    20    1
    38    18    37    1
    39    19    24    1
    40    19    38    1
    41    19    39    1
    42    20    40    1
    43    20    41    1
    44    21    25    1
    45    21    42    1
    46    21    43    1
    47    22    44    1
    48    23    24    1
    49    23    45    1
    50    24    46    1
    51    24    47    1
    52    25    31    1
    53    25    48    1
    54    26    49    1
    55    27    50    1
    56    28    32    1
    57    28    51    1
    58    28    52    1
    59    29    53    1
    60    29    54    1
    61    31    33   ar
    62    31    34   ar
    63    33    35   ar
    64    33    60    1
    65    34    61    1
    66    35    63    1
