@<TRIPOS>MOLECULE
IMPHY015578
 42 44 0 0 0
SMALL
GASTEIGER

@<TRIPOS>ATOM
      1 O           2.0000    2.0486    0.0000 O.3     1  UNL1       -0.3888
      2 C           4.5981   -0.4514    0.0000 C.3     1  UNL1       -0.0199
      3 C           3.7318   -0.9519    0.0000 C.3     1  UNL1       -0.0286
      4 C           3.7320    0.0486    0.0000 C.3     1  UNL1       -0.0259
      5 C           5.4641    0.0486    0.0000 C.3     1  UNL1       -0.0377
      6 C           3.9413   -1.9241    0.0000 C.3     1  UNL1       -0.0402
      7 C           5.3356   -1.1186    0.0000 C.3     1  UNL1       -0.0463
      8 C           3.7320    1.0486    0.0000 C.3     1  UNL1       -0.0090
      9 C           4.9305   -2.0269    0.0000 C.3     1  UNL1       -0.0497
     10 C           5.4641    1.0486    0.0000 C.3     1  UNL1       -0.0496
     11 C           4.5981    1.5486    0.0000 C.3     1  UNL1       -0.0471
     12 C           2.8660    1.5486    0.0000 C.3     1  UNL1        0.0636
     13 C           6.3301   -0.4514    0.0000 C.3     1  UNL1       -0.0619
     14 C           3.2737   -2.6686    0.0000 C.3     1  UNL1       -0.0621
     15 C           3.3660    2.4146    0.0000 C.3     1  UNL1       -0.0361
     16 C           2.3660    0.6825    0.0000 C.3     1  UNL1       -0.0361
     17 H           3.1153   -1.0175    0.0000 H       1  UNL1        0.0312
     18 H           3.1120    0.0486    0.0000 H       1  UNL1        0.0313
     19 H           5.4641   -0.5714    0.0000 H       1  UNL1        0.0304
     20 H           3.3421   -1.7651    0.0000 H       1  UNL1        0.0301
     21 H           5.8722   -1.4293    0.0000 H       1  UNL1        0.0271
     22 H           5.7009   -0.6177    0.0000 H       1  UNL1        0.0271
     23 H           3.7320    1.6686    0.0000 H       1  UNL1        0.0331
     24 H           4.8020   -2.6334    0.0000 H       1  UNL1        0.0268
     25 H           5.5202   -2.2185    0.0000 H       1  UNL1        0.0268
     26 H           6.0747    0.9409    0.0000 H       1  UNL1        0.0268
     27 H           5.6762    1.6312    0.0000 H       1  UNL1        0.0268
     28 H           4.9966    2.0235    0.0000 H       1  UNL1        0.0269
     29 H           4.1996    2.0235    0.0000 H       1  UNL1        0.0269
     30 H           6.0201   -0.9884    0.0000 H       1  UNL1        0.0233
     31 H           6.8671   -0.7614    0.0000 H       1  UNL1        0.0233
     32 H           6.6401    0.0855    0.0000 H       1  UNL1        0.0233
     33 H           2.8121   -2.2546    0.0000 H       1  UNL1        0.0233
     34 H           2.8597   -3.1301    0.0000 H       1  UNL1        0.0233
     35 H           3.7353   -3.0825    0.0000 H       1  UNL1        0.0233
     36 H           3.9030    2.1046    0.0000 H       1  UNL1        0.0257
     37 H           3.6760    2.9515    0.0000 H       1  UNL1        0.0257
     38 H           2.8291    2.7246    0.0000 H       1  UNL1        0.0257
     39 H           1.8291    0.9925    0.0000 H       1  UNL1        0.0257
     40 H           2.0560    0.1456    0.0000 H       1  UNL1        0.0257
     41 H           2.9030    0.3725    0.0000 H       1  UNL1        0.0257
     42 H           2.0000    2.6686    0.0000 H       1  UNL1        0.2101
@<TRIPOS>BOND
     1     1    12    1
     2     1    42    1
     3     2     3    1
     4     2     4    1
     5     2     5    1
     6     2     7    1
     7     3     4    1
     8     3     6    1
     9     3    17    1
    10     4     8    1
    11     4    18    1
    12     5    10    1
    13     5    13    1
    14     5    19    1
    15     6     9    1
    16     6    14    1
    17     6    20    1
    18     7     9    1
    19     7    21    1
    20     7    22    1
    21     8    11    1
    22     8    12    1
    23     8    23    1
    24     9    24    1
    25     9    25    1
    26    10    11    1
    27    10    26    1
    28    10    27    1
    29    11    28    1
    30    11    29    1
    31    12    15    1
    32    12    16    1
    33    13    30    1
    34    13    31    1
    35    13    32    1
    36    14    33    1
    37    14    34    1
    38    14    35    1
    39    15    36    1
    40    15    37    1
    41    15    38    1
    42    16    39    1
    43    16    40    1
    44    16    41    1
