@<TRIPOS>MOLECULE
IMPHY009853
 18 19 0 0 0
SMALL
GASTEIGER

@<TRIPOS>ATOM
      1 C           3.7320   -0.5000    0.0000 C.ar    1  UNL1       -0.0179
      2 C           3.7320    0.5000    0.0000 C.ar    1  UNL1       -0.0179
      3 C           2.8660   -1.0000    0.0000 C.ar    1  UNL1       -0.0540
      4 C           2.8660    1.0000    0.0000 C.ar    1  UNL1       -0.0540
      5 C           4.6260   -1.0347    0.0000 C.ar    1  UNL1       -0.0540
      6 C           4.6260    1.0347    0.0000 C.ar    1  UNL1       -0.0540
      7 C           2.0000   -0.5000    0.0000 C.ar    1  UNL1       -0.0612
      8 C           2.0000    0.5000    0.0000 C.ar    1  UNL1       -0.0612
      9 C           5.5321    0.5208    0.0000 C.ar    1  UNL1       -0.0612
     10 C           5.5321   -0.5208    0.0000 C.ar    1  UNL1       -0.0612
     11 H           2.8660   -1.6200    0.0000 H       1  UNL1        0.0624
     12 H           2.8660    1.6200    0.0000 H       1  UNL1        0.0624
     13 H           4.6188    1.6546    0.0000 H       1  UNL1        0.0624
     14 H           4.6188   -1.6546    0.0000 H       1  UNL1        0.0624
     15 H           1.4631   -0.8100    0.0000 H       1  UNL1        0.0618
     16 H           1.4631    0.8100    0.0000 H       1  UNL1        0.0618
     17 H           6.0678   -0.8329    0.0000 H       1  UNL1        0.0618
     18 H           6.0678    0.8329    0.0000 H       1  UNL1        0.0618
@<TRIPOS>BOND
     1     1     2   ar
     2     1     3   ar
     3     1     5   ar
     4     2     4   ar
     5     2     6   ar
     6     3     7   ar
     7     3    11    1
     8     4     8   ar
     9     4    12    1
    10     5    10   ar
    11     5    14    1
    12     6     9   ar
    13     6    13    1
    14     7     8   ar
    15     7    15    1
    16     8    16    1
    17     9    10   ar
    18     9    18    1
    19    10    17    1
