@<TRIPOS>MOLECULE
IMPHY012369
 60 61 0 0 0
SMALL
GASTEIGER

@<TRIPOS>ATOM
      1 O           6.8671   -1.0950    0.0000 O.3     1  UNL1       -0.3093
      2 O           5.1350   -1.0950    0.0000 O.3     1  UNL1       -0.3404
      3 O           6.0010    0.4050    0.0000 O.2     1  UNL1       -0.4699
      4 O           6.8671   -3.0950    0.0000 O.3     1  UNL1       -0.3841
      5 O           5.1350   -4.0950    0.0000 O.3     1  UNL1       -0.3864
      6 O           3.4030   -3.0950    0.0000 O.3     1  UNL1       -0.3865
      7 O          10.3312    1.9050    0.0000 O.3     1  UNL1       -0.3545
      8 O           9.4651    0.4050    0.0000 O.3     1  UNL1       -0.3545
      9 O           2.5369   -1.5950    0.0000 O.3     1  UNL1       -0.3924
     10 O           6.0010    3.4050    0.0000 O.3     1  UNL1       -0.4646
     11 O           7.7331    3.4050    0.0000 O.2     1  UNL1       -0.2452
     12 C           7.7331    0.4050    0.0000 C.3     1  UNL1        0.0468
     13 C           7.7331    1.4050    0.0000 C.3     1  UNL1        0.0103
     14 C           6.0010   -1.5950    0.0000 C.3     1  UNL1        0.1918
     15 C           6.0010   -2.5950    0.0000 C.3     1  UNL1        0.1342
     16 C           5.1350   -3.0950    0.0000 C.3     1  UNL1        0.1141
     17 C           4.2690   -2.5950    0.0000 C.3     1  UNL1        0.1119
     18 C           6.8671   -0.0950    0.0000 C.3     1  UNL1        0.2102
     19 C           4.2690   -1.5950    0.0000 C.3     1  UNL1        0.1130
     20 C           8.5991    1.9050    0.0000 C.3     1  UNL1        0.0062
     21 C           6.8671    1.9050    0.0000 C.2     1  UNL1        0.0747
     22 C           3.4030   -1.0950    0.0000 C.3     1  UNL1        0.0730
     23 C           8.5991   -0.0950    0.0000 C.2     1  UNL1       -0.0816
     24 C           9.4651    1.4050    0.0000 C.3     1  UNL1        0.1590
     25 C           6.0010    1.4050    0.0000 C.2     1  UNL1        0.0981
     26 C           6.8671    2.9050    0.0000 C.2     1  UNL1        0.3381
     27 C           8.5991   -1.0950    0.0000 C.2     1  UNL1       -0.1022
     28 C          11.1972    1.4050    0.0000 C.3     1  UNL1        0.0394
     29 C          10.3312   -0.0950    0.0000 C.3     1  UNL1        0.0394
     30 C           6.0010    4.4050    0.0000 C.3     1  UNL1        0.0820
     31 H           8.2700    0.7150    0.0000 H       1  UNL1        0.0410
     32 H           7.7331    2.0250    0.0000 H       1  UNL1        0.0361
     33 H           6.0010   -0.9750    0.0000 H       1  UNL1        0.0939
     34 H           6.0010   -3.2150    0.0000 H       1  UNL1        0.0671
     35 H           4.5981   -3.4050    0.0000 H       1  UNL1        0.0648
     36 H           4.2690   -3.2150    0.0000 H       1  UNL1        0.0647
     37 H           7.4040   -0.4050    0.0000 H       1  UNL1        0.1062
     38 H           4.2690   -0.9750    0.0000 H       1  UNL1        0.0647
     39 H           8.9976    2.3800    0.0000 H       1  UNL1        0.0320
     40 H           8.2006    2.3800    0.0000 H       1  UNL1        0.0320
     41 H           3.8015   -0.6201    0.0000 H       1  UNL1        0.0584
     42 H           3.0044   -0.6201    0.0000 H       1  UNL1        0.0584
     43 H           9.1360    0.2150    0.0000 H       1  UNL1        0.0571
     44 H          10.0021    1.0950    0.0000 H       1  UNL1        0.0909
     45 H           5.4641    1.7150    0.0000 H       1  UNL1        0.1029
     46 H           6.8671   -3.7150    0.0000 H       1  UNL1        0.2101
     47 H           4.5981   -4.4050    0.0000 H       1  UNL1        0.2100
     48 H           3.4030   -3.7150    0.0000 H       1  UNL1        0.2100
     49 H           8.0622   -1.4050    0.0000 H       1  UNL1        0.0532
     50 H           9.1360   -1.4050    0.0000 H       1  UNL1        0.0532
     51 H           2.0000   -1.2850    0.0000 H       1  UNL1        0.2095
     52 H          10.8872    0.8681    0.0000 H       1  UNL1        0.0525
     53 H          11.7341    1.0950    0.0000 H       1  UNL1        0.0525
     54 H          11.5072    1.9419    0.0000 H       1  UNL1        0.0525
     55 H          10.0212   -0.6319    0.0000 H       1  UNL1        0.0525
     56 H          10.8681   -0.4050    0.0000 H       1  UNL1        0.0525
     57 H          10.6412    0.4419    0.0000 H       1  UNL1        0.0525
     58 H           6.6210    4.4050    0.0000 H       1  UNL1        0.0661
     59 H           6.0010    5.0250    0.0000 H       1  UNL1        0.0661
     60 H           5.3810    4.4050    0.0000 H       1  UNL1        0.0661
@<TRIPOS>BOND
     1    14     1    1
     2    18     1    1
     3     2    14    1
     4     2    19    1
     5     3    18    1
     6     3    25    1
     7    15     4    1
     8     4    46    1
     9    16     5    1
    10     5    47    1
    11    17     6    1
    12     6    48    1
    13     7    24    1
    14     7    28    1
    15     8    24    1
    16     8    29    1
    17     9    22    1
    18     9    51    1
    19    10    26    1
    20    10    30    1
    21    11    26    2
    22    12    13    1
    23    12    18    1
    24    12    23    1
    25    12    31    1
    26    13    20    1
    27    13    21    1
    28    13    32    1
    29    14    15    1
    30    14    33    1
    31    15    16    1
    32    15    34    1
    33    16    17    1
    34    16    35    1
    35    17    19    1
    36    17    36    1
    37    18    37    1
    38    19    22    1
    39    19    38    1
    40    20    24    1
    41    20    39    1
    42    20    40    1
    43    21    25    2
    44    21    26    1
    45    22    41    1
    46    22    42    1
    47    23    27    2
    48    23    43    1
    49    24    44    1
    50    25    45    1
    51    27    49    1
    52    27    50    1
    53    28    52    1
    54    28    53    1
    55    28    54    1
    56    29    55    1
    57    29    56    1
    58    29    57    1
    59    30    58    1
    60    30    59    1
    61    30    60    1
