@<TRIPOS>MOLECULE
IMPHY008258
 155 163 0 0 0
SMALL
GASTEIGER

@<TRIPOS>ATOM
      1 O           7.8620    4.2594    0.0000 O.3     1  UNL1       -0.3449
      2 O           6.0010   -4.9991    0.0000 O.3     1  UNL1       -0.4318
      3 O           5.1350   -3.4991    0.0000 O.2     1  UNL1       -0.2501
      4 O           8.7453    5.7493    0.0000 O.3     1  UNL1       -0.3461
      5 O           9.5824    3.2395    0.0000 O.3     1  UNL1       -0.3378
      6 O           4.2690   -4.9991    0.0000 O.3     1  UNL1       -0.3312
      7 O          11.3259    4.2194    0.0000 O.3     1  UNL1       -0.3401
      8 O          11.3490    6.2193    0.0000 O.3     1  UNL1       -0.3868
      9 O           6.0010   -6.9991    0.0000 O.3     1  UNL1       -0.3829
     10 O          11.3143    3.2195    0.0000 O.3     1  UNL1       -0.3431
     11 O           4.2690   -7.9991    0.0000 O.3     1  UNL1       -0.3864
     12 O           2.5369   -6.9991    0.0000 O.3     1  UNL1       -0.3865
     13 O          12.2092    5.7093    0.0000 O.3     1  UNL1       -0.3405
     14 O           9.5593    1.2396    0.0000 O.3     1  UNL1       -0.3841
     15 O           2.5369   -3.9991    0.0000 O.3     1  UNL1       -0.3924
     16 O          13.6918    3.4260    0.0000 O.3     1  UNL1       -0.3841
     17 O          11.2796    0.2197    0.0000 O.3     1  UNL1       -0.3864
     18 O          13.0231    1.1996    0.0000 O.3     1  UNL1       -0.3866
     19 O          14.7898    4.1793    0.0000 O.3     1  UNL1       -0.3864
     20 O          14.8129    6.1792    0.0000 O.3     1  UNL1       -0.3865
     21 O          13.9643    7.6891    0.0000 O.3     1  UNL1       -0.3924
     22 C           6.9067   -0.4300    0.0000 C.3     1  UNL1       -0.0194
     23 C           7.8006    1.1046    0.0000 C.3     1  UNL1       -0.0250
     24 C           7.7765    0.0633    0.0000 C.3     1  UNL1       -0.0257
     25 C           6.8990   -1.4300    0.0000 C.3     1  UNL1       -0.0051
     26 C           6.9067    1.6393    0.0000 C.3     1  UNL1       -0.0278
     27 C           6.0006    0.0838    0.0000 C.3     1  UNL1       -0.0463
     28 C           6.9067    2.7243    0.0000 C.3     1  UNL1       -0.0052
     29 C           6.0006    1.1254    0.0000 C.3     1  UNL1       -0.0486
     30 C           8.7565    1.6179    0.0000 C.3     1  UNL1       -0.0447
     31 C           7.7611   -1.9367    0.0000 C.2     1  UNL1       -0.0626
     32 C           8.6387   -0.4434    0.0000 C.3     1  UNL1       -0.0306
     33 C           5.9851   -1.9298    0.0000 C.3     1  UNL1       -0.0424
     34 C           7.7691   -2.9783    0.0000 C.3     1  UNL1        0.0000
     35 C           7.8505    3.2595    0.0000 C.3     1  UNL1        0.0672
     36 C           6.8671   -3.4991    0.0000 C.3     1  UNL1        0.0749
     37 C           5.9206   -0.5960    0.0000 C.3     1  UNL1       -0.0585
     38 C           8.6588    0.5913    0.0000 C.3     1  UNL1       -0.0590
     39 C           8.7816    2.7026    0.0000 C.3     1  UNL1       -0.0255
     40 C           8.6310   -1.4434    0.0000 C.2     1  UNL1       -0.0836
     41 C           5.9690   -2.9713    0.0000 C.3     1  UNL1       -0.0359
     42 C           5.9155   -1.2488    0.0000 C.3     1  UNL1       -0.0553
     43 C           6.4100    3.5922    0.0000 C.3     1  UNL1       -0.0572
     44 C           5.9067    2.7281    0.0000 C.3     1  UNL1       -0.0572
     45 C           8.7170   -3.5062    0.0000 C.3     1  UNL1       -0.0244
     46 C           6.8503   -4.5840    0.0000 C.3     1  UNL1       -0.0330
     47 C           6.0010   -3.9991    0.0000 C.2     1  UNL1        0.3162
     48 C           7.7858   -5.1337    0.0000 C.3     1  UNL1       -0.0310
     49 C           8.7254   -4.5912    0.0000 C.2     1  UNL1       -0.0760
     50 C           8.7338    4.7494    0.0000 C.3     1  UNL1        0.1882
     51 C           9.5933   -5.0878    0.0000 C.2     1  UNL1       -0.0994
     52 C           9.5940    4.2394    0.0000 C.3     1  UNL1        0.1410
     53 C           5.1350   -5.4991    0.0000 C.3     1  UNL1        0.2337
     54 C          10.4657    4.7294    0.0000 C.3     1  UNL1        0.1206
     55 C           9.6171    6.2393    0.0000 C.3     1  UNL1        0.0792
     56 C          10.4773    5.7293    0.0000 C.3     1  UNL1        0.1073
     57 C           5.1350   -6.4991    0.0000 C.3     1  UNL1        0.1455
     58 C           4.2690   -6.9991    0.0000 C.3     1  UNL1        0.1152
     59 C          10.4426    2.7295    0.0000 C.3     1  UNL1        0.1884
     60 C           3.4030   -5.4991    0.0000 C.3     1  UNL1        0.1140
     61 C           3.4030   -6.4991    0.0000 C.3     1  UNL1        0.1120
     62 C          12.1976    4.7094    0.0000 C.3     1  UNL1        0.1884
     63 C          10.4310    1.7296    0.0000 C.3     1  UNL1        0.1341
     64 C           2.5369   -4.9991    0.0000 C.3     1  UNL1        0.0731
     65 C          13.0578    4.1994    0.0000 C.3     1  UNL1        0.1341
     66 C          11.2912    1.2196    0.0000 C.3     1  UNL1        0.1140
     67 C          12.1745    2.7095    0.0000 C.3     1  UNL1        0.0873
     68 C          12.1630    1.7096    0.0000 C.3     1  UNL1        0.1095
     69 C          13.9296    4.6893    0.0000 C.3     1  UNL1        0.1141
     70 C          13.0810    6.1992    0.0000 C.3     1  UNL1        0.1130
     71 C          13.9411    5.6893    0.0000 C.3     1  UNL1        0.1119
     72 C          13.1573    2.5245    0.0000 C.3     1  UNL1       -0.0361
     73 C          13.0925    7.1992    0.0000 C.3     1  UNL1        0.0730
     74 H           8.5191    0.4769    0.0000 H       1  UNL1        0.0315
     75 H           6.1722    2.0671    0.0000 H       1  UNL1        0.0312
     76 H           5.3898    0.1899    0.0000 H       1  UNL1        0.0271
     77 H           5.7916   -0.4999    0.0000 H       1  UNL1        0.0271
     78 H           5.7916    1.7091    0.0000 H       1  UNL1        0.0268
     79 H           5.3898    1.0194    0.0000 H       1  UNL1        0.0268
     80 H           8.9520    1.0295    0.0000 H       1  UNL1        0.0271
     81 H           9.3697    1.7098    0.0000 H       1  UNL1        0.0271
     82 H           9.2484   -0.5558    0.0000 H       1  UNL1        0.0310
     83 H           8.8552    0.1376    0.0000 H       1  UNL1        0.0310
     84 H           5.7850   -1.3430    0.0000 H       1  UNL1        0.0274
     85 H           5.3727   -2.0265    0.0000 H       1  UNL1        0.0274
     86 H           8.5003   -2.5448    0.0000 H       1  UNL1        0.0359
     87 H           7.3165    3.5747    0.0000 H       1  UNL1        0.0602
     88 H           5.8176    0.0153    0.0000 H       1  UNL1        0.0235
     89 H           5.3092   -0.6990    0.0000 H       1  UNL1        0.0235
     90 H           6.0235   -1.2074    0.0000 H       1  UNL1        0.0235
     91 H           8.3406    0.0592    0.0000 H       1  UNL1        0.0235
     92 H           9.1909    0.2731    0.0000 H       1  UNL1        0.0235
     93 H           8.9771    1.1234    0.0000 H       1  UNL1        0.0235
     94 H           9.3899    2.5824    0.0000 H       1  UNL1        0.0290
     95 H           9.0041    3.2813    0.0000 H       1  UNL1        0.0290
     96 H           9.1655   -1.7575    0.0000 H       1  UNL1        0.0572
     97 H           5.3599   -2.8558    0.0000 H       1  UNL1        0.0276
     98 H           5.7510   -3.5517    0.0000 H       1  UNL1        0.0276
     99 H           6.0279   -0.6390    0.0000 H       1  UNL1        0.0238
    100 H           5.3058   -1.1364    0.0000 H       1  UNL1        0.0238
    101 H           5.8032   -1.8585    0.0000 H       1  UNL1        0.0238
    102 H           6.9481    3.9002    0.0000 H       1  UNL1        0.0236
    103 H           5.9091    3.3481    0.0000 H       1  UNL1        0.0236
    104 H           5.2867    2.7305    0.0000 H       1  UNL1        0.0236
    105 H           6.1021    4.1304    0.0000 H       1  UNL1        0.0236
    106 H           5.8719    3.2843    0.0000 H       1  UNL1        0.0236
    107 H           5.9043    2.1081    0.0000 H       1  UNL1        0.0236
    108 H           9.3287   -3.6076    0.0000 H       1  UNL1        0.0316
    109 H           8.9216   -2.9209    0.0000 H       1  UNL1        0.0316
    110 H           6.2412   -4.4684    0.0000 H       1  UNL1        0.0279
    111 H           6.6323   -5.1644    0.0000 H       1  UNL1        0.0279
    112 H           7.3848   -5.6066    0.0000 H       1  UNL1        0.0310
    113 H           8.1831   -5.6096    0.0000 H       1  UNL1        0.0310
    114 H           8.2005    5.0656    0.0000 H       1  UNL1        0.0937
    115 H           9.5957   -5.7078    0.0000 H       1  UNL1        0.0534
    116 H          10.1291   -4.7758    0.0000 H       1  UNL1        0.0534
    117 H           9.0535    3.9357    0.0000 H       1  UNL1        0.0675
    118 H           5.1350   -4.8791    0.0000 H       1  UNL1        0.1085
    119 H          10.4585    4.1094    0.0000 H       1  UNL1        0.0651
    120 H          10.0211    6.7096    0.0000 H       1  UNL1        0.0587
    121 H           9.2241    6.7188    0.0000 H       1  UNL1        0.0587
    122 H          10.4844    6.3493    0.0000 H       1  UNL1        0.0643
    123 H           5.1350   -7.1191    0.0000 H       1  UNL1        0.0683
    124 H           3.7320   -7.3091    0.0000 H       1  UNL1        0.0648
    125 H          10.4498    3.3495    0.0000 H       1  UNL1        0.0938
    126 H           3.4030   -4.8791    0.0000 H       1  UNL1        0.0647
    127 H           2.8660   -6.1891    0.0000 H       1  UNL1        0.0647
    128 H          11.3562    6.8392    0.0000 H       1  UNL1        0.2100
    129 H          11.6643    5.0255    0.0000 H       1  UNL1        0.0938
    130 H          10.4239    1.1096    0.0000 H       1  UNL1        0.0671
    131 H           6.5380   -6.6891    0.0000 H       1  UNL1        0.2102
    132 H           1.9264   -4.8914    0.0000 H       1  UNL1        0.0584
    133 H           2.3249   -5.5817    0.0000 H       1  UNL1        0.0584
    134 H          12.6539    3.7290    0.0000 H       1  UNL1        0.0671
    135 H          11.8245    0.9034    0.0000 H       1  UNL1        0.0648
    136 H           3.7320   -8.3091    0.0000 H       1  UNL1        0.2100
    137 H          12.3933    3.2896    0.0000 H       1  UNL1        0.0621
    138 H          12.7034    2.0133    0.0000 H       1  UNL1        0.0646
    139 H           2.0000   -6.6891    0.0000 H       1  UNL1        0.2100
    140 H          13.9224    4.0694    0.0000 H       1  UNL1        0.0648
    141 H          12.5476    6.5154    0.0000 H       1  UNL1        0.0647
    142 H           9.5521    0.6197    0.0000 H       1  UNL1        0.2101
    143 H          13.9483    6.3092    0.0000 H       1  UNL1        0.0647
    144 H           2.0000   -3.6891    0.0000 H       1  UNL1        0.2095
    145 H          13.0425    1.9152    0.0000 H       1  UNL1        0.0255
    146 H          13.7665    2.4098    0.0000 H       1  UNL1        0.0255
    147 H          13.2720    3.1338    0.0000 H       1  UNL1        0.0255
    148 H          14.3035    3.5265    0.0000 H       1  UNL1        0.2101
    149 H          11.8130   -0.0965    0.0000 H       1  UNL1        0.2100
    150 H          13.5636    1.5033    0.0000 H       1  UNL1        0.2100
    151 H          12.8872    7.7842    0.0000 H       1  UNL1        0.0584
    152 H          12.4807    7.0986    0.0000 H       1  UNL1        0.0584
    153 H          15.3303    4.4831    0.0000 H       1  UNL1        0.2100
    154 H          15.3462    5.8630    0.0000 H       1  UNL1        0.2100
    155 H          13.9714    8.3091    0.0000 H       1  UNL1        0.2095
@<TRIPOS>BOND
     1    35     1    1
     2    50     1    1
     3     2    47    1
     4    53     2    1
     5     3    47    2
     6     4    50    1
     7     4    55    1
     8    52     5    1
     9    59     5    1
    10     6    53    1
    11     6    60    1
    12    54     7    1
    13    62     7    1
    14    56     8    1
    15     8   128    1
    16    57     9    1
    17     9   131    1
    18    10    59    1
    19    10    67    1
    20    58    11    1
    21    11   136    1
    22    61    12    1
    23    12   139    1
    24    13    62    1
    25    13    70    1
    26    63    14    1
    27    14   142    1
    28    15    64    1
    29    15   144    1
    30    65    16    1
    31    16   148    1
    32    66    17    1
    33    17   149    1
    34    68    18    1
    35    18   150    1
    36    69    19    1
    37    19   153    1
    38    71    20    1
    39    20   154    1
    40    21    73    1
    41    21   155    1
    42    22    24    1
    43    22    25    1
    44    22    27    1
    45    22    37    1
    46    23    24    1
    47    23    26    1
    48    23    30    1
    49    23    38    1
    50    24    32    1
    51    24    74    1
    52    25    31    1
    53    25    33    1
    54    25    42    1
    55    26    28    1
    56    26    29    1
    57    26    75    1
    58    27    29    1
    59    27    76    1
    60    27    77    1
    61    28    35    1
    62    28    43    1
    63    28    44    1
    64    29    78    1
    65    29    79    1
    66    30    39    1
    67    30    80    1
    68    30    81    1
    69    31    34    1
    70    31    40    2
    71    32    40    1
    72    32    82    1
    73    32    83    1
    74    33    41    1
    75    33    84    1
    76    33    85    1
    77    34    36    1
    78    34    45    1
    79    34    86    1
    80    35    39    1
    81    35    87    1
    82    36    41    1
    83    36    46    1
    84    36    47    1
    85    37    88    1
    86    37    89    1
    87    37    90    1
    88    38    91    1
    89    38    92    1
    90    38    93    1
    91    39    94    1
    92    39    95    1
    93    40    96    1
    94    41    97    1
    95    41    98    1
    96    42    99    1
    97    42   100    1
    98    42   101    1
    99    43   102    1
   100    43   105    1
   101    43   106    1
   102    44   103    1
   103    44   104    1
   104    44   107    1
   105    45    49    1
   106    45   108    1
   107    45   109    1
   108    46    48    1
   109    46   110    1
   110    46   111    1
   111    48    49    1
   112    48   112    1
   113    48   113    1
   114    49    51    2
   115    50    52    1
   116    50   114    1
   117    51   115    1
   118    51   116    1
   119    52    54    1
   120    52   117    1
   121    53    57    1
   122    53   118    1
   123    54    56    1
   124    54   119    1
   125    55    56    1
   126    55   120    1
   127    55   121    1
   128    56   122    1
   129    57    58    1
   130    57   123    1
   131    58    61    1
   132    58   124    1
   133    59    63    1
   134    59   125    1
   135    60    61    1
   136    60    64    1
   137    60   126    1
   138    61   127    1
   139    62    65    1
   140    62   129    1
   141    63    66    1
   142    63   130    1
   143    64   132    1
   144    64   133    1
   145    65    69    1
   146    65   134    1
   147    66    68    1
   148    66   135    1
   149    67    68    1
   150    67    72    1
   151    67   137    1
   152    68   138    1
   153    69    71    1
   154    69   140    1
   155    70    71    1
   156    70    73    1
   157    70   141    1
   158    71   143    1
   159    72   145    1
   160    72   146    1
   161    72   147    1
   162    73   151    1
   163    73   152    1
