@<TRIPOS>MOLECULE
IMPHY016172
 24 25 0 0 0
SMALL
GASTEIGER

@<TRIPOS>ATOM
      1 C           3.7320   -0.5000    0.0000 C.3     1  UNL1       -0.0164
      2 C           3.7320    0.5000    0.0000 C.3     1  UNL1       -0.0164
      3 C           4.6260   -1.0347    0.0000 C.3     1  UNL1       -0.0428
      4 C           2.8660    1.0000    0.0000 C.3     1  UNL1       -0.0428
      5 C           5.5321   -0.5208    0.0000 C.3     1  UNL1       -0.0342
      6 C           2.0000    0.5000    0.0000 C.3     1  UNL1       -0.0342
      7 C           2.8660   -1.0000    0.0000 C.2     1  UNL1       -0.0843
      8 C           4.6260    1.0347    0.0000 C.2     1  UNL1       -0.0843
      9 C           2.0000   -0.5000    0.0000 C.2     1  UNL1       -0.0876
     10 C           5.5321    0.5208    0.0000 C.2     1  UNL1       -0.0876
     11 H           3.7273   -1.1200    0.0000 H       1  UNL1        0.0349
     12 H           3.7273    1.1200    0.0000 H       1  UNL1        0.0349
     13 H           4.2214   -1.5044    0.0000 H       1  UNL1        0.0274
     14 H           5.0196   -1.5137    0.0000 H       1  UNL1        0.0274
     15 H           3.2646    1.4750    0.0000 H       1  UNL1        0.0274
     16 H           2.4675    1.4750    0.0000 H       1  UNL1        0.0274
     17 H           5.7411   -1.1045    0.0000 H       1  UNL1        0.0308
     18 H           6.1429   -0.4147    0.0000 H       1  UNL1        0.0308
     19 H           1.7880    1.0826    0.0000 H       1  UNL1        0.0308
     20 H           1.3894    0.3923    0.0000 H       1  UNL1        0.0308
     21 H           2.8660   -1.6200    0.0000 H       1  UNL1        0.0572
     22 H           4.6188    1.6546    0.0000 H       1  UNL1        0.0572
     23 H           1.4631   -0.8100    0.0000 H       1  UNL1        0.0569
     24 H           6.0678    0.8329    0.0000 H       1  UNL1        0.0569
@<TRIPOS>BOND
     1     1     2    1
     2     1     3    1
     3     1     7    1
     4     1    11    1
     5     2     4    1
     6     2     8    1
     7     2    12    1
     8     3     5    1
     9     3    13    1
    10     3    14    1
    11     4     6    1
    12     4    15    1
    13     4    16    1
    14     5    10    1
    15     5    17    1
    16     5    18    1
    17     6     9    1
    18     6    19    1
    19     6    20    1
    20     7     9    2
    21     7    21    1
    22     8    10    2
    23     8    22    1
    24     9    23    1
    25    10    24    1
