@<TRIPOS>MOLECULE
IMPHY002289
 84 90 0 0 0
SMALL
GASTEIGER

@<TRIPOS>ATOM
      1 O           6.7390   -1.9617    0.0000 O.3     1  UNL1       -0.3788
      2 O           4.9163    1.8001    0.0000 O.3     1  UNL1       -0.3791
      3 O           8.6327    1.5486    0.0000 O.3     1  UNL1       -0.4542
      4 O           7.0415    3.1120    0.0000 O.3     1  UNL1       -0.3820
      5 O           3.1654   -0.4700    0.0000 O.3     1  UNL1       -0.3910
      6 O           9.0340    2.2581    0.0000 O.3     1  UNL1       -0.3728
      7 O           4.0503   -2.4350    0.0000 O.3     1  UNL1       -0.3823
      8 O           8.7880   -0.1765    0.0000 O.2     1  UNL1       -0.2449
      9 N           3.7210   -0.0289    0.0000 N.3     1  UNL1       -0.2977
     10 C           5.6676    0.3663    0.0000 C.3     1  UNL1        0.0226
     11 C           5.6676   -0.5013    0.0000 C.3     1  UNL1        0.0069
     12 C           4.6656    0.2603    0.0000 C.3     1  UNL1        0.0279
     13 C           6.3459    0.9073    0.0000 C.3     1  UNL1       -0.0184
     14 C           7.1918   -0.8491    0.0000 C.3     1  UNL1        0.0233
     15 C           4.9163   -0.9350    0.0000 C.3     1  UNL1        0.0386
     16 C           6.3459   -1.0422    0.0000 C.3     1  UNL1        0.0704
     17 C           7.1918    0.7142    0.0000 C.3     1  UNL1        0.0241
     18 C           4.9163    0.8001    0.0000 C.3     1  UNL1        0.0684
     19 C           7.5682   -0.0675    0.0000 C.2     1  UNL1       -0.0570
     20 C           6.2682    1.7713    0.0000 C.3     1  UNL1       -0.0136
     21 C           7.0659    2.1123    0.0000 C.3     1  UNL1        0.1330
     22 C           3.7210   -0.7808    0.0000 C.3     1  UNL1        0.0097
     23 C           7.6367    1.4590    0.0000 C.3     1  UNL1        0.1413
     24 C           4.1649   -0.5013    0.0000 C.3     1  UNL1        0.0668
     25 C           4.1649    0.3663    0.0000 C.3     1  UNL1        0.0008
     26 C           8.2131    1.6870    0.0000 C.3     1  UNL1        0.1088
     27 C           4.9163   -1.9350    0.0000 C.3     1  UNL1        0.0568
     28 C           8.2131    0.2025    0.0000 C.2     1  UNL1       -0.0528
     29 C           2.9170    0.5658    0.0000 C.3     1  UNL1       -0.0036
     30 C           2.0000    0.1669    0.0000 C.3     1  UNL1       -0.0523
     31 C           6.1391   -2.7618    0.0000 C.3     1  UNL1        0.0368
     32 C           4.0502    2.3001    0.0000 C.3     1  UNL1        0.0368
     33 C           9.2083    0.7309    0.0000 C.2     1  UNL1        0.3396
     34 C           8.9498    3.2545    0.0000 C.3     1  UNL1        0.0373
     35 C           4.0503   -3.4350    0.0000 C.3     1  UNL1        0.0365
     36 C          10.2043    0.8205    0.0000 C.ar    1  UNL1        0.0590
     37 C          10.7799    0.0028    0.0000 C.ar    1  UNL1       -0.0478
     38 C          10.6247    1.7279    0.0000 C.ar    1  UNL1       -0.0478
     39 C          11.7759    0.0924    0.0000 C.ar    1  UNL1       -0.0610
     40 C          11.6206    1.8175    0.0000 C.ar    1  UNL1       -0.0610
     41 C          12.1962    0.9998    0.0000 C.ar    1  UNL1       -0.0617
     42 H           5.6041   -1.3489    0.0000 H       1  UNL1        0.0340
     43 H           4.3537    1.0510    0.0000 H       1  UNL1        0.0476
     44 H           5.5643    1.2413    0.0000 H       1  UNL1        0.0315
     45 H           7.7217   -1.5137    0.0000 H       1  UNL1        0.0386
     46 H           6.1455   -1.6289    0.0000 H       1  UNL1        0.0605
     47 H           8.0409    0.6761    0.0000 H       1  UNL1        0.0385
     48 H           5.4532    1.1101    0.0000 H       1  UNL1        0.0603
     49 H           6.0854    2.3638    0.0000 H       1  UNL1        0.0298
     50 H           5.6598    1.6515    0.0000 H       1  UNL1        0.0298
     51 H           3.1015   -0.7543    0.0000 H       1  UNL1        0.0434
     52 H           3.6680   -1.3985    0.0000 H       1  UNL1        0.0434
     53 H           7.8676    2.0344    0.0000 H       1  UNL1        0.0770
     54 H           3.9952   -1.0976    0.0000 H       1  UNL1        0.0601
     55 H           3.9529    0.9489    0.0000 H       1  UNL1        0.0315
     56 H           3.5544    0.2587    0.0000 H       1  UNL1        0.0315
     57 H           8.1349    2.3020    0.0000 H       1  UNL1        0.0670
     58 H           5.1283   -2.5176    0.0000 H       1  UNL1        0.0566
     59 H           5.5269   -1.8274    0.0000 H       1  UNL1        0.0566
     60 H           8.7292   -0.1410    0.0000 H       1  UNL1        0.0598
     61 H           3.3666    0.9926    0.0000 H       1  UNL1        0.0424
     62 H           2.5747    1.0827    0.0000 H       1  UNL1        0.0424
     63 H           7.5707    3.4350    0.0000 H       1  UNL1        0.2104
     64 H           2.8388   -0.9970    0.0000 H       1  UNL1        0.2098
     65 H           1.7527    0.7354    0.0000 H       1  UNL1        0.0242
     66 H           1.4315   -0.0805    0.0000 H       1  UNL1        0.0242
     67 H           2.2473   -0.4017    0.0000 H       1  UNL1        0.0242
     68 H           5.6430   -2.3899    0.0000 H       1  UNL1        0.0524
     69 H           5.7672   -3.2579    0.0000 H       1  UNL1        0.0524
     70 H           6.6352   -3.1337    0.0000 H       1  UNL1        0.0524
     71 H           4.3602    2.8370    0.0000 H       1  UNL1        0.0524
     72 H           3.5133    2.6101    0.0000 H       1  UNL1        0.0524
     73 H           3.7402    1.7632    0.0000 H       1  UNL1        0.0524
     74 H           9.5676    3.3067    0.0000 H       1  UNL1        0.0524
     75 H           8.8976    3.8723    0.0000 H       1  UNL1        0.0524
     76 H           8.3320    3.2024    0.0000 H       1  UNL1        0.0524
     77 H           3.4303   -3.4350    0.0000 H       1  UNL1        0.0523
     78 H           4.0503   -4.0550    0.0000 H       1  UNL1        0.0523
     79 H           4.6703   -3.4350    0.0000 H       1  UNL1        0.0523
     80 H          10.5193   -0.5598    0.0000 H       1  UNL1        0.0626
     81 H          10.2678    2.2349    0.0000 H       1  UNL1        0.0626
     82 H          12.1328   -0.4145    0.0000 H       1  UNL1        0.0618
     83 H          11.8813    2.3801    0.0000 H       1  UNL1        0.0618
     84 H          12.8138    1.0554    0.0000 H       1  UNL1        0.0618
@<TRIPOS>BOND
     1    16     1    1
     2     1    31    1
     3    18     2    1
     4     2    32    1
     5    23     3    1
     6     3    33    1
     7    21     4    1
     8     4    63    1
     9    24     5    1
    10     5    64    1
    11    26     6    1
    12     6    34    1
    13     7    27    1
    14     7    35    1
    15     8    33    2
    16     9    12    1
    17     9    22    1
    18     9    29    1
    19    10    11    1
    20    10    12    1
    21    10    13    1
    22    10    18    1
    23    11    15    1
    24    11    16    1
    25    11    42    1
    26    12    14    1
    27    12    43    1
    28    13    17    1
    29    13    20    1
    30    13    44    1
    31    14    16    1
    32    14    19    1
    33    14    45    1
    34    15    22    1
    35    15    24    1
    36    15    27    1
    37    16    46    1
    38    17    19    1
    39    17    23    1
    40    17    47    1
    41    18    25    1
    42    18    48    1
    43    19    28    2
    44    20    21    1
    45    20    49    1
    46    20    50    1
    47    21    23    1
    48    21    26    1
    49    22    51    1
    50    22    52    1
    51    23    53    1
    52    24    25    1
    53    24    54    1
    54    25    55    1
    55    25    56    1
    56    26    28    1
    57    26    57    1
    58    27    58    1
    59    27    59    1
    60    28    60    1
    61    29    30    1
    62    29    61    1
    63    29    62    1
    64    30    65    1
    65    30    66    1
    66    30    67    1
    67    31    68    1
    68    31    69    1
    69    31    70    1
    70    32    71    1
    71    32    72    1
    72    32    73    1
    73    33    36    1
    74    34    74    1
    75    34    75    1
    76    34    76    1
    77    35    77    1
    78    35    78    1
    79    35    79    1
    80    36    37   ar
    81    36    38   ar
    82    37    39   ar
    83    37    80    1
    84    38    40   ar
    85    38    81    1
    86    39    41   ar
    87    39    82    1
    88    40    41   ar
    89    40    83    1
    90    41    84    1
