@<TRIPOS>MOLECULE
IMPHY000697
 96 104 0 0 0
SMALL
GASTEIGER

@<TRIPOS>ATOM
      1 O           9.9916    1.9586    0.0000 O.3     1  UNL1       -0.4487
      2 O          11.1096    1.5953    0.0000 O.3     1  UNL1       -0.3488
      3 O           9.6231   -2.2478    0.0000 O.3     1  UNL1       -0.4803
      4 O           7.1510   -0.8781    0.0000 O.3     1  UNL1       -0.4800
      5 O          11.7906   -0.7305    0.0000 O.3     1  UNL1       -0.4534
      6 O          12.0549    0.7285    0.0000 O.2     1  UNL1       -0.2857
      7 O           5.7580    1.3713    0.0000 O.3     1  UNL1       -0.4534
      8 O           8.6266    3.6907    0.0000 O.3     1  UNL1       -0.5009
      9 O           6.6198    3.2803    0.0000 O.3     1  UNL1       -0.5032
     10 O          12.4619   -4.2989    0.0000 O.3     1  UNL1       -0.5063
     11 O           3.7332   -1.6428    0.0000 O.3     1  UNL1       -0.5063
     12 O           9.2362   -5.7567    0.0000 O.3     1  UNL1       -0.5065
     13 O          13.1936   -1.7462    0.0000 O.2     1  UNL1       -0.2449
     14 O           6.1220   -4.2550    0.0000 O.3     1  UNL1       -0.5065
     15 O           4.0681    0.9916    0.0000 O.2     1  UNL1       -0.2449
     16 O          15.9475    0.5811    0.0000 O.3     1  UNL1       -0.5032
     17 O          13.1414    2.6124    0.0000 O.3     1  UNL1       -0.5032
     18 O          15.1308    2.4068    0.0000 O.3     1  UNL1       -0.5009
     19 O           5.8357    4.9760    0.0000 O.3     1  UNL1       -0.5032
     20 O           2.4559    4.2166    0.0000 O.3     1  UNL1       -0.5032
     21 O           3.9266    5.5720    0.0000 O.3     1  UNL1       -0.5009
     22 C           9.4916    0.4197    0.0000 C.3     1  UNL1        0.0862
     23 C          10.3006    1.0075    0.0000 C.3     1  UNL1        0.2844
     24 C           9.8012   -0.5249    0.0000 C.2     1  UNL1       -0.0084
     25 C           8.6825    1.0075    0.0000 C.ar    1  UNL1        0.0190
     26 C          10.2096   -1.4377    0.0000 C.3     1  UNL1        0.1594
     27 C           8.9916    1.9586    0.0000 C.ar    1  UNL1        0.1739
     28 C           7.6671    0.7752    0.0000 C.ar    1  UNL1        0.0074
     29 C          11.1033    0.4211    0.0000 C.2     1  UNL1        0.2279
     30 C          10.7953   -0.5240    0.0000 C.2     1  UNL1       -0.0089
     31 C          11.2043   -1.5405    0.0000 C.3     1  UNL1        0.1480
     32 C           6.9318    0.0975    0.0000 C.3     1  UNL1        0.1626
     33 C          11.6126   -2.4534    0.0000 C.3     1  UNL1        0.0204
     34 C           5.9772    0.3956    0.0000 C.3     1  UNL1        0.1483
     35 C           8.3066    2.7433    0.0000 C.ar    1  UNL1        0.2013
     36 C           6.9642    1.5439    0.0000 C.ar    1  UNL1       -0.0092
     37 C          11.0262   -3.2634    0.0000 C.ar    1  UNL1        0.0395
     38 C           5.2418   -0.2821    0.0000 C.3     1  UNL1        0.0204
     39 C           7.2861    2.5346    0.0000 C.ar    1  UNL1        0.1624
     40 C          10.0315   -3.1606    0.0000 C.ar    1  UNL1        0.1318
     41 C           5.4611   -1.2578    0.0000 C.ar    1  UNL1        0.0395
     42 C           6.4156   -1.5558    0.0000 C.ar    1  UNL1        0.1318
     43 C          11.4662   -4.2076    0.0000 C.ar    1  UNL1        0.1271
     44 C           9.4077   -3.9949    0.0000 C.ar    1  UNL1        0.0221
     45 C           4.6843   -1.9518    0.0000 C.ar    1  UNL1        0.1271
     46 C           6.6596   -2.5684    0.0000 C.ar    1  UNL1        0.0221
     47 C          12.7853   -0.8333    0.0000 C.2     1  UNL1        0.3398
     48 C          10.8619   -5.0560    0.0000 C.ar    1  UNL1        0.0218
     49 C           9.8257   -4.9490    0.0000 C.ar    1  UNL1        0.1238
     50 C           4.8034    1.6693    0.0000 C.2     1  UNL1        0.3398
     51 C           4.9048   -2.9699    0.0000 C.ar    1  UNL1        0.0218
     52 C           5.8991   -3.2802    0.0000 C.ar    1  UNL1        0.1238
     53 C          13.3717   -0.0233    0.0000 C.ar    1  UNL1        0.0661
     54 C           4.5842    2.6449    0.0000 C.ar    1  UNL1        0.0661
     55 C          12.9634    0.8895    0.0000 C.ar    1  UNL1       -0.0023
     56 C          14.3664   -0.1261    0.0000 C.ar    1  UNL1       -0.0023
     57 C           3.6297    2.9430    0.0000 C.ar    1  UNL1       -0.0023
     58 C           5.3196    3.3226    0.0000 C.ar    1  UNL1       -0.0023
     59 C          14.9528    0.6839    0.0000 C.ar    1  UNL1        0.1628
     60 C          13.5497    1.6996    0.0000 C.ar    1  UNL1        0.1628
     61 C          14.5444    1.5968    0.0000 C.ar    1  UNL1        0.2006
     62 C           5.1004    4.2983    0.0000 C.ar    1  UNL1        0.1628
     63 C           3.4104    3.9186    0.0000 C.ar    1  UNL1        0.1628
     64 C           4.1458    4.5963    0.0000 C.ar    1  UNL1        0.2006
     65 H           8.9904    0.0546    0.0000 H       1  UNL1        0.0466
     66 H          10.5731   -0.9355    0.0000 H       1  UNL1        0.0819
     67 H          11.1597   -1.0256    0.0000 H       1  UNL1        0.0655
     68 H          11.8210   -1.6042    0.0000 H       1  UNL1        0.0778
     69 H           7.5236   -0.0872    0.0000 H       1  UNL1        0.0822
     70 H          12.0440   -2.8986    0.0000 H       1  UNL1        0.0353
     71 H          12.1260   -2.1058    0.0000 H       1  UNL1        0.0353
     72 H           5.3854    0.5803    0.0000 H       1  UNL1        0.0778
     73 H           6.3582    1.4127    0.0000 H       1  UNL1        0.0659
     74 H          11.0448    2.2119    0.0000 H       1  UNL1        0.2143
     75 H           4.9072    0.2398    0.0000 H       1  UNL1        0.0353
     76 H           4.6697   -0.5210    0.0000 H       1  UNL1        0.0353
     77 H           8.7917   -3.9240    0.0000 H       1  UNL1        0.0691
     78 H           8.2171    4.1562    0.0000 H       1  UNL1        0.2924
     79 H           7.2535   -2.7463    0.0000 H       1  UNL1        0.0691
     80 H          11.1172   -5.6210    0.0000 H       1  UNL1        0.0691
     81 H           6.0129    3.1537    0.0000 H       1  UNL1        0.2923
     82 H           4.4473   -3.3883    0.0000 H       1  UNL1        0.0691
     83 H          12.7216   -4.8619    0.0000 H       1  UNL1        0.2921
     84 H           3.2725   -2.0577    0.0000 H       1  UNL1        0.2921
     85 H           8.6196   -5.6906    0.0000 H       1  UNL1        0.2921
     86 H          12.3466    0.9533    0.0000 H       1  UNL1        0.0663
     87 H          14.6195   -0.6921    0.0000 H       1  UNL1        0.0663
     88 H           6.7146   -4.4375    0.0000 H       1  UNL1        0.2921
     89 H           3.1738    2.5229    0.0000 H       1  UNL1        0.0663
     90 H           5.9114    3.1378    0.0000 H       1  UNL1        0.0663
     91 H          16.2006    0.0152    0.0000 H       1  UNL1        0.2923
     92 H          12.5247    2.6761    0.0000 H       1  UNL1        0.2923
     93 H          15.7475    2.3431    0.0000 H       1  UNL1        0.2924
     94 H           5.6998    5.5809    0.0000 H       1  UNL1        0.2923
     95 H           2.0000    3.7965    0.0000 H       1  UNL1        0.2923
     96 H           3.3348    5.7567    0.0000 H       1  UNL1        0.2924
@<TRIPOS>BOND
     1     1    23    1
     2     1    27    1
     3     2    23    1
     4     2    74    1
     5     3    26    1
     6     3    40    1
     7     4    32    1
     8     4    42    1
     9    31     5    1
    10     5    47    1
    11     6    29    2
    12     7    34    1
    13     7    50    1
    14     8    35    1
    15     8    78    1
    16     9    39    1
    17     9    81    1
    18    10    43    1
    19    10    83    1
    20    11    45    1
    21    11    84    1
    22    12    49    1
    23    12    85    1
    24    13    47    2
    25    14    52    1
    26    14    88    1
    27    15    50    2
    28    16    59    1
    29    16    91    1
    30    17    60    1
    31    17    92    1
    32    18    61    1
    33    18    93    1
    34    19    62    1
    35    19    94    1
    36    20    63    1
    37    20    95    1
    38    21    64    1
    39    21    96    1
    40    22    23    1
    41    22    24    1
    42    22    25    1
    43    22    65    1
    44    23    29    1
    45    26    24    1
    46    24    30    2
    47    25    27   ar
    48    25    28   ar
    49    26    31    1
    50    26    66    1
    51    27    35   ar
    52    28    32    1
    53    28    36   ar
    54    29    30    1
    55    30    67    1
    56    31    33    1
    57    31    68    1
    58    32    34    1
    59    32    69    1
    60    33    37    1
    61    33    70    1
    62    33    71    1
    63    34    38    1
    64    34    72    1
    65    35    39   ar
    66    36    39   ar
    67    36    73    1
    68    37    40   ar
    69    37    43   ar
    70    38    41    1
    71    38    75    1
    72    38    76    1
    73    40    44   ar
    74    41    42   ar
    75    41    45   ar
    76    42    46   ar
    77    43    48   ar
    78    44    49   ar
    79    44    77    1
    80    45    51   ar
    81    46    52   ar
    82    46    79    1
    83    47    53    1
    84    48    49   ar
    85    48    80    1
    86    50    54    1
    87    51    52   ar
    88    51    82    1
    89    53    55   ar
    90    53    56   ar
    91    54    57   ar
    92    54    58   ar
    93    55    60   ar
    94    55    86    1
    95    56    59   ar
    96    56    87    1
    97    57    63   ar
    98    57    89    1
    99    58    62   ar
   100    58    90    1
   101    59    61   ar
   102    60    61   ar
   103    62    64   ar
   104    63    64   ar
