@<TRIPOS>MOLECULE
IMPHY017440
 15 15 0 0 0
SMALL
GASTEIGER

@<TRIPOS>ATOM
      1 O           4.8660   -0.6160    0.0000 O.2     1  UNL1       -0.2971
      2 C           3.3660    0.2500    0.0000 C.3     1  UNL1        0.0417
      3 C           2.5000    0.7500    0.0000 C.3     1  UNL1       -0.0181
      4 C           2.5000   -0.2500    0.0000 C.2     1  UNL1       -0.0652
      5 C           4.3660    0.2500    0.0000 C.2     1  UNL1        0.1376
      6 C           2.0000   -1.1160    0.0000 C.2     1  UNL1       -0.0987
      7 C           4.8660    1.1160    0.0000 C.3     1  UNL1       -0.0055
      8 H           3.5265   -0.3489    0.0000 H       1  UNL1        0.0426
      9 H           2.7120    1.3326    0.0000 H       1  UNL1        0.0320
     10 H           1.8894    0.8577    0.0000 H       1  UNL1        0.0320
     11 H           1.3800   -1.1160    0.0000 H       1  UNL1        0.0535
     12 H           2.3100   -1.6530    0.0000 H       1  UNL1        0.0535
     13 H           5.4030    0.8060    0.0000 H       1  UNL1        0.0306
     14 H           5.1760    1.6530    0.0000 H       1  UNL1        0.0306
     15 H           4.3291    1.4260    0.0000 H       1  UNL1        0.0306
@<TRIPOS>BOND
     1     1     5    2
     2     2     3    1
     3     2     4    1
     4     2     5    1
     5     2     8    1
     6     3     4    1
     7     3     9    1
     8     3    10    1
     9     4     6    2
    10     5     7    1
    11     6    11    1
    12     6    12    1
    13     7    13    1
    14     7    14    1
    15     7    15    1
