@<TRIPOS>MOLECULE
IMPHY012636
 39 41 0 0 0
SMALL
GASTEIGER

@<TRIPOS>ATOM
      1 C           3.8839   -0.3226    0.0000 C.3     1  UNL1       -0.0024
      2 C           3.0749    0.2652    0.0000 C.3     1  UNL1       -0.0194
      3 C           3.3839    1.2162    0.0000 C.3     1  UNL1       -0.0296
      4 C           3.8907    0.9508    0.0000 C.3     1  UNL1       -0.0307
      5 C           4.1379    0.1900    0.0000 C.3     1  UNL1       -0.0377
      6 C           4.6929    0.2652    0.0000 C.3     1  UNL1       -0.0429
      7 C           4.3839    1.2162    0.0000 C.3     1  UNL1       -0.0484
      8 C           2.1169   -0.1438    0.0000 C.3     1  UNL1       -0.0463
      9 C           3.7910   -1.3601    0.0000 C.2     1  UNL1       -0.0699
     10 C           2.2658    0.8529    0.0000 C.3     1  UNL1       -0.0585
     11 C           2.0000   -1.1788    0.0000 C.3     1  UNL1       -0.0488
     12 C           3.7343    1.9385    0.0000 C.3     1  UNL1       -0.0595
     13 C           4.4353    1.7895    0.0000 C.3     1  UNL1       -0.0595
     14 C           2.8427   -1.7911    0.0000 C.3     1  UNL1       -0.0314
     15 C           4.6067   -1.9385    0.0000 C.2     1  UNL1       -0.0989
     16 H           3.0194    1.7178    0.0000 H       1  UNL1        0.0311
     17 H           4.6017   -0.2215    0.0000 H       1  UNL1        0.0279
     18 H           4.6566    0.5296    0.0000 H       1  UNL1        0.0279
     19 H           5.0029   -0.2718    0.0000 H       1  UNL1        0.0274
     20 H           5.2593    0.5173    0.0000 H       1  UNL1        0.0274
     21 H           4.9903    1.3451    0.0000 H       1  UNL1        0.0269
     22 H           4.3191    1.8328    0.0000 H       1  UNL1        0.0269
     23 H           1.9746    0.4597    0.0000 H       1  UNL1        0.0271
     24 H           1.4980   -0.1807    0.0000 H       1  UNL1        0.0271
     25 H           2.6303    1.3545    0.0000 H       1  UNL1        0.0235
     26 H           1.7642    1.2174    0.0000 H       1  UNL1        0.0235
     27 H           1.9014    0.3513    0.0000 H       1  UNL1        0.0235
     28 H           1.4049   -1.0049    0.0000 H       1  UNL1        0.0268
     29 H           1.7268   -1.7354    0.0000 H       1  UNL1        0.0268
     30 H           4.3466    2.0355    0.0000 H       1  UNL1        0.0235
     31 H           3.6373    2.5509    0.0000 H       1  UNL1        0.0235
     32 H           3.1219    1.8415    0.0000 H       1  UNL1        0.0235
     33 H           4.9553    1.4518    0.0000 H       1  UNL1        0.0235
     34 H           4.7730    2.3095    0.0000 H       1  UNL1        0.0235
     35 H           3.9154    2.1272    0.0000 H       1  UNL1        0.0235
     36 H           2.3978   -2.2229    0.0000 H       1  UNL1        0.0310
     37 H           3.1920   -2.3033    0.0000 H       1  UNL1        0.0310
     38 H           4.5491   -2.5558    0.0000 H       1  UNL1        0.0535
     39 H           5.1702   -1.6798    0.0000 H       1  UNL1        0.0535
@<TRIPOS>BOND
     1     1     2    1
     2     1     5    1
     3     1     6    1
     4     1     9    1
     5     2     3    1
     6     2     8    1
     7     2    10    1
     8     3     4    1
     9     3     7    1
    10     3    16    1
    11     4     5    1
    12     4    12    1
    13     4    13    1
    14     5    17    1
    15     5    18    1
    16     6     7    1
    17     6    19    1
    18     6    20    1
    19     7    21    1
    20     7    22    1
    21     8    11    1
    22     8    23    1
    23     8    24    1
    24     9    14    1
    25     9    15    2
    26    10    25    1
    27    10    26    1
    28    10    27    1
    29    11    14    1
    30    11    28    1
    31    11    29    1
    32    12    30    1
    33    12    31    1
    34    12    32    1
    35    13    33    1
    36    13    34    1
    37    13    35    1
    38    14    36    1
    39    14    37    1
    40    15    38    1
    41    15    39    1
