@<TRIPOS>MOLECULE
IMPHY001113
 54 57 0 0 0
SMALL
GASTEIGER

@<TRIPOS>ATOM
      1 O           5.1350    0.1721    0.0000 O.3     1  UNL1       -0.3609
      2 O           6.8671    2.1721    0.0000 O.3     1  UNL1       -0.3862
      3 O           5.1350    3.1721    0.0000 O.3     1  UNL1       -0.3865
      4 O           3.4030    2.1721    0.0000 O.3     1  UNL1       -0.3865
      5 O           2.5369    0.6721    0.0000 O.3     1  UNL1       -0.3924
      6 O           7.7331    1.6721    0.0000 O.3     1  UNL1       -0.5054
      7 O           6.0010   -1.3279    0.0000 O.3     1  UNL1       -0.5062
      8 O           9.4931   -1.3626    0.0000 O.2     1  UNL1       -0.4505
      9 O           9.4815    1.7067    0.0000 O.2     1  UNL1       -0.2830
     10 O          11.2632    0.6962    0.0000 O.3     1  UNL1       -0.5007
     11 O          10.3914   -2.8487    0.0000 O.3     1  UNL1       -0.5059
     12 O          13.8632   -0.8621    0.0000 O.3     1  UNL1       -0.5033
     13 O          13.8555   -2.8621    0.0000 O.3     1  UNL1       -0.5032
     14 C           6.0010    1.6721    0.0000 C.3     1  UNL1        0.1139
     15 C           5.1350    2.1721    0.0000 C.3     1  UNL1        0.1121
     16 C           6.0010    0.6721    0.0000 C.3     1  UNL1        0.1193
     17 C           4.2690    1.6721    0.0000 C.3     1  UNL1        0.1117
     18 C           4.2690    0.6721    0.0000 C.3     1  UNL1        0.1108
     19 C           6.8671    0.1721    0.0000 C.ar    1  UNL1        0.0673
     20 C           3.4030    0.1721    0.0000 C.3     1  UNL1        0.0729
     21 C           7.7331    0.6721    0.0000 C.ar    1  UNL1        0.1405
     22 C           6.8671   -0.8279    0.0000 C.ar    1  UNL1        0.1296
     23 C           8.5991    0.1721    0.0000 C.ar    1  UNL1        0.1095
     24 C           7.7331   -1.3279    0.0000 C.ar    1  UNL1        0.0235
     25 C           8.5991   -0.8279    0.0000 C.ar    1  UNL1        0.1466
     26 C           9.4931    0.7067    0.0000 C.ar    1  UNL1        0.2379
     27 C          10.3991   -0.8487    0.0000 C.ar    1  UNL1        0.1842
     28 C          10.3991    0.1929    0.0000 C.ar    1  UNL1        0.2083
     29 C          11.2632   -1.3521    0.0000 C.ar    1  UNL1        0.0661
     30 C          11.2594   -2.3521    0.0000 C.ar    1  UNL1        0.1313
     31 C          12.1312   -0.8554    0.0000 C.ar    1  UNL1       -0.0022
     32 C          12.9953   -1.3587    0.0000 C.ar    1  UNL1        0.1591
     33 C          12.1235   -2.8554    0.0000 C.ar    1  UNL1        0.0257
     34 C          12.9914   -2.3587    0.0000 C.ar    1  UNL1        0.1618
     35 H           6.5380    1.3621    0.0000 H       1  UNL1        0.0649
     36 H           5.6720    2.4821    0.0000 H       1  UNL1        0.0647
     37 H           6.0010   -0.1779    0.0000 H       1  UNL1        0.0676
     38 H           4.2690    2.2921    0.0000 H       1  UNL1        0.0647
     39 H           4.2690    0.0521    0.0000 H       1  UNL1        0.0646
     40 H           3.0044   -0.3029    0.0000 H       1  UNL1        0.0584
     41 H           3.8015   -0.3029    0.0000 H       1  UNL1        0.0584
     42 H           6.8671    2.7921    0.0000 H       1  UNL1        0.2100
     43 H           4.5981    3.4821    0.0000 H       1  UNL1        0.2100
     44 H           3.4030    2.7921    0.0000 H       1  UNL1        0.2100
     45 H           7.7331   -1.9479    0.0000 H       1  UNL1        0.0691
     46 H           2.0000    0.3621    0.0000 H       1  UNL1        0.2095
     47 H           8.2700    1.9821    0.0000 H       1  UNL1        0.2922
     48 H           6.0010   -1.9479    0.0000 H       1  UNL1        0.2922
     49 H          12.1336   -0.2354    0.0000 H       1  UNL1        0.0663
     50 H          11.2608    1.3162    0.0000 H       1  UNL1        0.2924
     51 H          12.1211   -3.4754    0.0000 H       1  UNL1        0.0692
     52 H          10.3890   -3.4687    0.0000 H       1  UNL1        0.2922
     53 H          14.3989   -1.1742    0.0000 H       1  UNL1        0.2923
     54 H          13.8531   -3.4821    0.0000 H       1  UNL1        0.2923
@<TRIPOS>BOND
     1     1    16    1
     2     1    18    1
     3    14     2    1
     4     2    42    1
     5    15     3    1
     6     3    43    1
     7    17     4    1
     8     4    44    1
     9     5    20    1
    10     5    46    1
    11     6    21    1
    12     6    47    1
    13     7    22    1
    14     7    48    1
    15     8    25   ar
    16     8    27   ar
    17     9    26    2
    18    10    28    1
    19    10    50    1
    20    11    30    1
    21    11    52    1
    22    12    32    1
    23    12    53    1
    24    13    34    1
    25    13    54    1
    26    14    15    1
    27    14    16    1
    28    14    35    1
    29    15    17    1
    30    15    36    1
    31    16    19    1
    32    16    37    1
    33    17    18    1
    34    17    38    1
    35    18    20    1
    36    18    39    1
    37    19    21   ar
    38    19    22   ar
    39    20    40    1
    40    20    41    1
    41    21    23   ar
    42    22    24   ar
    43    23    25   ar
    44    23    26   ar
    45    24    25   ar
    46    24    45    1
    47    26    28   ar
    48    27    28   ar
    49    27    29    1
    50    29    30   ar
    51    29    31   ar
    52    30    33   ar
    53    31    32   ar
    54    31    49    1
    55    32    34   ar
    56    33    34   ar
    57    33    51    1
