@<TRIPOS>MOLECULE
IMPHY011625
 134 142 0 0 0
SMALL
GASTEIGER

@<TRIPOS>ATOM
      1 O          10.8882    4.0403    0.0000 O.3     1  UNL1       -0.3553
      2 O           9.4651   -4.2038    0.0000 O.3     1  UNL1       -0.3451
      3 O           7.7331   -4.2038    0.0000 O.3     1  UNL1       -0.3405
      4 O           9.4651   -6.2038    0.0000 O.3     1  UNL1       -0.3378
      5 O           7.7331   -7.2038    0.0000 O.3     1  UNL1       -0.3864
      6 O           6.0010   -6.2038    0.0000 O.3     1  UNL1       -0.3401
      7 O          10.3312   -4.7038    0.0000 O.3     1  UNL1       -0.3431
      8 O           6.0010   -3.2038    0.0000 O.3     1  UNL1       -0.3924
      9 O           5.1350   -4.7038    0.0000 O.3     1  UNL1       -0.3431
     10 O          11.1972   -7.2038    0.0000 O.3     1  UNL1       -0.3841
     11 O          12.9292   -6.2038    0.0000 O.3     1  UNL1       -0.3864
     12 O           4.2690   -7.2038    0.0000 O.3     1  UNL1       -0.3841
     13 O          12.9292   -4.2038    0.0000 O.3     1  UNL1       -0.3866
     14 O           2.5369   -6.2038    0.0000 O.3     1  UNL1       -0.3864
     15 O           2.5369   -4.2038    0.0000 O.3     1  UNL1       -0.3866
     16 N          10.8378    5.1213    0.0000 N.3     1  UNL1       -0.2885
     17 C           9.4944    1.9931    0.0000 C.3     1  UNL1       -0.0233
     18 C          10.3623    1.4965    0.0000 C.3     1  UNL1       -0.0296
     19 C           9.6999    2.9657    0.0000 C.3     1  UNL1       -0.0025
     20 C          10.3662    0.4965    0.0000 C.3     1  UNL1       -0.0306
     21 C          10.6882    3.0726    0.0000 C.3     1  UNL1        0.0649
     22 C           9.5021   -0.0069    0.0000 C.3     1  UNL1       -0.0285
     23 C          11.0968    2.1664    0.0000 C.3     1  UNL1       -0.0226
     24 C           9.2976    3.8683    0.0000 C.3     1  UNL1        0.0046
     25 C           8.6303    1.4898    0.0000 C.3     1  UNL1       -0.0467
     26 C           8.6342    0.4898    0.0000 C.3     1  UNL1       -0.0486
     27 C          10.0305    4.5311    0.0000 C.3     1  UNL1        0.1239
     28 C           9.4901   -1.0484    0.0000 C.3     1  UNL1       -0.0078
     29 C           8.6264    2.4898    0.0000 C.3     1  UNL1       -0.0590
     30 C          11.2781   -0.0069    0.0000 C.3     1  UNL1       -0.0311
     31 C          10.3901   -1.5727    0.0000 C.2     1  UNL1       -0.0648
     32 C           9.1158    4.9351    0.0000 C.3     1  UNL1       -0.0095
     33 C           8.5402   -1.5727    0.0000 C.3     1  UNL1       -0.0413
     34 C           8.3192    4.0750    0.0000 C.3     1  UNL1       -0.0582
     35 C          11.2902   -1.0484    0.0000 C.2     1  UNL1       -0.0839
     36 C           8.6260   -0.5451    0.0000 C.3     1  UNL1       -0.0556
     37 C          10.4027   -2.6576    0.0000 C.3     1  UNL1       -0.0047
     38 C           8.5276   -2.6576    0.0000 C.3     1  UNL1       -0.0254
     39 C           9.0083    5.9293    0.0000 C.3     1  UNL1       -0.0454
     40 C           9.4651   -3.2038    0.0000 C.3     1  UNL1        0.0655
     41 C          10.7303    6.1155    0.0000 C.3     1  UNL1        0.0010
     42 C           9.8155    6.5195    0.0000 C.3     1  UNL1       -0.0311
     43 C           9.7080    7.5138    0.0000 C.3     1  UNL1       -0.0613
     44 C           8.5991   -4.7038    0.0000 C.3     1  UNL1        0.1886
     45 C           8.5991   -5.7038    0.0000 C.3     1  UNL1        0.1406
     46 C           7.7331   -6.2038    0.0000 C.3     1  UNL1        0.1148
     47 C           6.8671   -4.7038    0.0000 C.3     1  UNL1        0.1134
     48 C           6.8671   -5.7038    0.0000 C.3     1  UNL1        0.1184
     49 C           6.0010   -4.2038    0.0000 C.3     1  UNL1        0.0730
     50 C          10.3312   -5.7038    0.0000 C.3     1  UNL1        0.1884
     51 C          11.1972   -6.2038    0.0000 C.3     1  UNL1        0.1341
     52 C           5.1350   -5.7038    0.0000 C.3     1  UNL1        0.1883
     53 C          12.0632   -5.7038    0.0000 C.3     1  UNL1        0.1140
     54 C          11.1972   -4.2038    0.0000 C.3     1  UNL1        0.0873
     55 C           4.2690   -6.2038    0.0000 C.3     1  UNL1        0.1341
     56 C          12.0632   -4.7038    0.0000 C.3     1  UNL1        0.1095
     57 C           3.4030   -5.7038    0.0000 C.3     1  UNL1        0.1140
     58 C           4.2690   -4.2038    0.0000 C.3     1  UNL1        0.0873
     59 C           3.4030   -4.7038    0.0000 C.3     1  UNL1        0.1095
     60 C          11.1972   -3.2038    0.0000 C.3     1  UNL1       -0.0361
     61 C           4.2690   -3.2038    0.0000 C.3     1  UNL1       -0.0361
     62 H          11.1406    1.1548    0.0000 H       1  UNL1        0.0310
     63 H           8.8546    2.8762    0.0000 H       1  UNL1        0.0335
     64 H          11.0974    0.9300    0.0000 H       1  UNL1        0.0310
     65 H          11.5330    3.1658    0.0000 H       1  UNL1        0.0600
     66 H          10.2366   -0.4347    0.0000 H       1  UNL1        0.0312
     67 H          11.4642    1.6670    0.0000 H       1  UNL1        0.0293
     68 H          11.6321    2.4792    0.0000 H       1  UNL1        0.0293
     69 H           8.9078    3.3862    0.0000 H       1  UNL1        0.0343
     70 H           8.4160    2.0716    0.0000 H       1  UNL1        0.0271
     71 H           8.0201    1.3798    0.0000 H       1  UNL1        0.0271
     72 H           8.0232    0.5951    0.0000 H       1  UNL1        0.0268
     73 H           8.4244   -0.0936    0.0000 H       1  UNL1        0.0268
     74 H           8.9344    3.0279    0.0000 H       1  UNL1        0.0235
     75 H           8.0883    2.7977    0.0000 H       1  UNL1        0.0235
     76 H           8.3185    1.9517    0.0000 H       1  UNL1        0.0235
     77 H          11.8902   -0.1059    0.0000 H       1  UNL1        0.0310
     78 H          11.4804    0.5792    0.0000 H       1  UNL1        0.0310
     79 H           8.4972    4.9765    0.0000 H       1  UNL1        0.0306
     80 H           8.9676    4.3331    0.0000 H       1  UNL1        0.0306
     81 H           8.3379   -0.9866    0.0000 H       1  UNL1        0.0274
     82 H           7.9281   -1.6717    0.0000 H       1  UNL1        0.0274
     83 H           8.4473    4.6816    0.0000 H       1  UNL1        0.0234
     84 H           7.7125    4.2032    0.0000 H       1  UNL1        0.0234
     85 H           8.1910    3.4684    0.0000 H       1  UNL1        0.0234
     86 H          11.8295   -1.3543    0.0000 H       1  UNL1        0.0572
     87 H          11.4049    4.8708    0.0000 H       1  UNL1        0.1246
     88 H           8.9380   -0.0093    0.0000 H       1  UNL1        0.0238
     89 H           8.0902   -0.2330    0.0000 H       1  UNL1        0.0238
     90 H           8.3139   -1.0808    0.0000 H       1  UNL1        0.0238
     91 H          10.6185   -3.2389    0.0000 H       1  UNL1        0.0335
     92 H          11.0123   -2.5445    0.0000 H       1  UNL1        0.0335
     93 H           7.9180   -2.5445    0.0000 H       1  UNL1        0.0290
     94 H           8.3118   -3.2389    0.0000 H       1  UNL1        0.0290
     95 H           8.7348    6.4858    0.0000 H       1  UNL1        0.0270
     96 H           8.4128    5.7567    0.0000 H       1  UNL1        0.0270
     97 H          10.0027   -3.5127    0.0000 H       1  UNL1        0.0600
     98 H          11.3489    6.0741    0.0000 H       1  UNL1        0.0427
     99 H          10.8785    6.7176    0.0000 H       1  UNL1        0.0427
    100 H          10.3160    6.8855    0.0000 H       1  UNL1        0.0310
    101 H          10.3244    7.5804    0.0000 H       1  UNL1        0.0233
    102 H           9.6414    8.1302    0.0000 H       1  UNL1        0.0233
    103 H           9.0916    7.4471    0.0000 H       1  UNL1        0.0233
    104 H           8.5991   -4.0838    0.0000 H       1  UNL1        0.0938
    105 H           8.5991   -6.3238    0.0000 H       1  UNL1        0.0675
    106 H           7.1962   -6.5138    0.0000 H       1  UNL1        0.0648
    107 H           6.8671   -4.0838    0.0000 H       1  UNL1        0.0647
    108 H           6.3301   -5.3938    0.0000 H       1  UNL1        0.0651
    109 H           5.3905   -4.0961    0.0000 H       1  UNL1        0.0584
    110 H           5.7890   -4.7864    0.0000 H       1  UNL1        0.0584
    111 H           9.7942   -5.3938    0.0000 H       1  UNL1        0.0938
    112 H           7.1962   -7.5138    0.0000 H       1  UNL1        0.2100
    113 H          11.7341   -6.5138    0.0000 H       1  UNL1        0.0671
    114 H           5.1350   -6.3238    0.0000 H       1  UNL1        0.0938
    115 H           5.4641   -2.8938    0.0000 H       1  UNL1        0.2095
    116 H          12.6002   -5.3938    0.0000 H       1  UNL1        0.0648
    117 H          10.6603   -3.8938    0.0000 H       1  UNL1        0.0621
    118 H           3.7320   -6.5138    0.0000 H       1  UNL1        0.0671
    119 H          12.0632   -4.0838    0.0000 H       1  UNL1        0.0646
    120 H           2.8660   -5.3938    0.0000 H       1  UNL1        0.0648
    121 H          11.7341   -7.5138    0.0000 H       1  UNL1        0.2101
    122 H           4.8059   -3.8938    0.0000 H       1  UNL1        0.0621
    123 H           3.4030   -4.0838    0.0000 H       1  UNL1        0.0646
    124 H          11.8172   -3.2038    0.0000 H       1  UNL1        0.0255
    125 H          11.1972   -2.5838    0.0000 H       1  UNL1        0.0255
    126 H          10.5772   -3.2038    0.0000 H       1  UNL1        0.0255
    127 H          13.4662   -5.8938    0.0000 H       1  UNL1        0.2100
    128 H           3.7320   -7.5138    0.0000 H       1  UNL1        0.2101
    129 H          13.4662   -4.5138    0.0000 H       1  UNL1        0.2100
    130 H           4.8890   -3.2038    0.0000 H       1  UNL1        0.0255
    131 H           4.2690   -2.5838    0.0000 H       1  UNL1        0.0255
    132 H           3.6490   -3.2038    0.0000 H       1  UNL1        0.0255
    133 H           2.0000   -5.8938    0.0000 H       1  UNL1        0.2100
    134 H           2.5369   -3.5838    0.0000 H       1  UNL1        0.2100
@<TRIPOS>BOND
     1     1    21    1
     2    27     1    1
     3    40     2    1
     4    44     2    1
     5     3    44    1
     6     3    47    1
     7    45     4    1
     8    50     4    1
     9    46     5    1
    10     5   112    1
    11    48     6    1
    12    52     6    1
    13     7    50    1
    14     7    54    1
    15     8    49    1
    16     8   115    1
    17     9    52    1
    18     9    58    1
    19    51    10    1
    20    10   121    1
    21    53    11    1
    22    11   127    1
    23    55    12    1
    24    12   128    1
    25    56    13    1
    26    13   129    1
    27    57    14    1
    28    14   133    1
    29    59    15    1
    30    15   134    1
    31    16    27    1
    32    16    41    1
    33    16    87    1
    34    17    18    1
    35    17    19    1
    36    17    25    1
    37    17    29    1
    38    18    20    1
    39    18    23    1
    40    18    62    1
    41    19    21    1
    42    19    24    1
    43    19    63    1
    44    20    22    1
    45    20    30    1
    46    20    64    1
    47    21    23    1
    48    21    65    1
    49    22    26    1
    50    22    28    1
    51    22    66    1
    52    23    67    1
    53    23    68    1
    54    24    27    1
    55    24    34    1
    56    24    69    1
    57    25    26    1
    58    25    70    1
    59    25    71    1
    60    26    72    1
    61    26    73    1
    62    27    32    1
    63    28    31    1
    64    28    33    1
    65    28    36    1
    66    29    74    1
    67    29    75    1
    68    29    76    1
    69    30    35    1
    70    30    77    1
    71    30    78    1
    72    31    35    2
    73    31    37    1
    74    32    39    1
    75    32    79    1
    76    32    80    1
    77    33    38    1
    78    33    81    1
    79    33    82    1
    80    34    83    1
    81    34    84    1
    82    34    85    1
    83    35    86    1
    84    36    88    1
    85    36    89    1
    86    36    90    1
    87    37    40    1
    88    37    91    1
    89    37    92    1
    90    38    40    1
    91    38    93    1
    92    38    94    1
    93    39    42    1
    94    39    95    1
    95    39    96    1
    96    40    97    1
    97    41    42    1
    98    41    98    1
    99    41    99    1
   100    42    43    1
   101    42   100    1
   102    43   101    1
   103    43   102    1
   104    43   103    1
   105    44    45    1
   106    44   104    1
   107    45    46    1
   108    45   105    1
   109    46    48    1
   110    46   106    1
   111    47    48    1
   112    47    49    1
   113    47   107    1
   114    48   108    1
   115    49   109    1
   116    49   110    1
   117    50    51    1
   118    50   111    1
   119    51    53    1
   120    51   113    1
   121    52    55    1
   122    52   114    1
   123    53    56    1
   124    53   116    1
   125    54    56    1
   126    54    60    1
   127    54   117    1
   128    55    57    1
   129    55   118    1
   130    56   119    1
   131    57    59    1
   132    57   120    1
   133    58    59    1
   134    58    61    1
   135    58   122    1
   136    59   123    1
   137    60   124    1
   138    60   125    1
   139    60   126    1
   140    61   130    1
   141    61   131    1
   142    61   132    1
