@<TRIPOS>MOLECULE
IMPHY014519
 54 56 0 0 0
SMALL
GASTEIGER

@<TRIPOS>ATOM
      1 O           6.8671   -1.0950    0.0000 O.3     1  UNL1       -0.3095
      2 O           6.0010    0.4050    0.0000 O.2     1  UNL1       -0.4702
      3 O           5.1350   -1.0950    0.0000 O.3     1  UNL1       -0.3404
      4 O           8.9900    2.6602    0.0000 O.2     1  UNL1       -0.2967
      5 O           9.9685   -1.0565    0.0000 O.3     1  UNL1       -0.4677
      6 O           6.8671   -3.0950    0.0000 O.3     1  UNL1       -0.3841
      7 O           5.1350   -4.0950    0.0000 O.3     1  UNL1       -0.3864
      8 O           3.4030   -3.0950    0.0000 O.3     1  UNL1       -0.3865
      9 O           8.3221   -1.5946    0.0000 O.2     1  UNL1       -0.2505
     10 O           6.0010    3.4050    0.0000 O.3     1  UNL1       -0.4646
     11 O           2.5369   -1.5950    0.0000 O.3     1  UNL1       -0.3924
     12 O           7.7331    3.4050    0.0000 O.2     1  UNL1       -0.2452
     13 C           7.7331    0.4050    0.0000 C.3     1  UNL1        0.0487
     14 C           7.7331    1.4050    0.0000 C.3     1  UNL1        0.0614
     15 C           8.6793    0.1003    0.0000 C.3     1  UNL1        0.0725
     16 C           6.8671   -0.0950    0.0000 C.3     1  UNL1        0.2080
     17 C           9.2629    0.9050    0.0000 C.3     1  UNL1        0.0198
     18 C           8.6793    1.7097    0.0000 C.2     1  UNL1        0.1423
     19 C           6.8671    1.9050    0.0000 C.2     1  UNL1        0.0814
     20 C           6.0010   -1.5950    0.0000 C.3     1  UNL1        0.1918
     21 C           6.0010   -2.5950    0.0000 C.3     1  UNL1        0.1342
     22 C           8.9900   -0.8503    0.0000 C.2     1  UNL1        0.3109
     23 C           5.1350   -3.0950    0.0000 C.3     1  UNL1        0.1141
     24 C           4.2690   -2.5950    0.0000 C.3     1  UNL1        0.1119
     25 C           4.2690   -1.5950    0.0000 C.3     1  UNL1        0.1130
     26 C           6.0010    1.4050    0.0000 C.2     1  UNL1        0.0985
     27 C           6.8671    2.9050    0.0000 C.2     1  UNL1        0.3385
     28 C           3.4030   -1.0950    0.0000 C.3     1  UNL1        0.0730
     29 C          10.2791   -2.0070    0.0000 C.3     1  UNL1        0.0817
     30 C           6.0010    4.4050    0.0000 C.3     1  UNL1        0.0820
     31 H           7.8230   -0.4402    0.0000 H       1  UNL1        0.0379
     32 H           7.8230    2.2502    0.0000 H       1  UNL1        0.0434
     33 H           8.2418   -0.3391    0.0000 H       1  UNL1        0.0423
     34 H           7.4040   -0.4050    0.0000 H       1  UNL1        0.1059
     35 H           9.7238    0.4903    0.0000 H       1  UNL1        0.0350
     36 H           9.7238    1.3197    0.0000 H       1  UNL1        0.0350
     37 H           6.0010   -0.9750    0.0000 H       1  UNL1        0.0939
     38 H           6.0010   -3.2150    0.0000 H       1  UNL1        0.0671
     39 H           4.5981   -3.4050    0.0000 H       1  UNL1        0.0648
     40 H           4.2690   -3.2150    0.0000 H       1  UNL1        0.0647
     41 H           4.2690   -0.9750    0.0000 H       1  UNL1        0.0647
     42 H           5.4641    1.7150    0.0000 H       1  UNL1        0.1029
     43 H           3.8015   -0.6201    0.0000 H       1  UNL1        0.0584
     44 H           3.0044   -0.6201    0.0000 H       1  UNL1        0.0584
     45 H           6.8671   -3.7150    0.0000 H       1  UNL1        0.2101
     46 H           4.5981   -4.4050    0.0000 H       1  UNL1        0.2100
     47 H           3.4030   -3.7150    0.0000 H       1  UNL1        0.2100
     48 H           9.6898   -2.1996    0.0000 H       1  UNL1        0.0661
     49 H          10.4717   -2.5963    0.0000 H       1  UNL1        0.0661
     50 H          10.8685   -1.8144    0.0000 H       1  UNL1        0.0661
     51 H           2.0000   -1.2850    0.0000 H       1  UNL1        0.2095
     52 H           6.6210    4.4050    0.0000 H       1  UNL1        0.0661
     53 H           6.0010    5.0250    0.0000 H       1  UNL1        0.0661
     54 H           5.3810    4.4050    0.0000 H       1  UNL1        0.0661
@<TRIPOS>BOND
     1    16     1    1
     2    20     1    1
     3     2    16    1
     4     2    26    1
     5     3    20    1
     6     3    25    1
     7     4    18    2
     8     5    22    1
     9     5    29    1
    10    21     6    1
    11     6    45    1
    12    23     7    1
    13     7    46    1
    14    24     8    1
    15     8    47    1
    16     9    22    2
    17    10    27    1
    18    10    30    1
    19    11    28    1
    20    11    51    1
    21    12    27    2
    22    13    14    1
    23    13    15    1
    24    13    16    1
    25    13    31    1
    26    14    18    1
    27    14    19    1
    28    14    32    1
    29    15    17    1
    30    15    22    1
    31    15    33    1
    32    16    34    1
    33    17    18    1
    34    17    35    1
    35    17    36    1
    36    19    26    2
    37    19    27    1
    38    20    21    1
    39    20    37    1
    40    21    23    1
    41    21    38    1
    42    23    24    1
    43    23    39    1
    44    24    25    1
    45    24    40    1
    46    25    28    1
    47    25    41    1
    48    26    42    1
    49    28    43    1
    50    28    44    1
    51    29    48    1
    52    29    49    1
    53    29    50    1
    54    30    52    1
    55    30    53    1
    56    30    54    1
