@<TRIPOS>MOLECULE
IMPHY012551
 45 47 0 0 0
SMALL
GASTEIGER

@<TRIPOS>ATOM
      1 O           5.5220    0.5159    0.0000 O.3     1  UNL1       -0.4591
      2 O           2.9239    0.0159    0.0000 O.3     1  UNL1       -0.4599
      3 O           4.8668   -2.6630    0.0000 O.3     1  UNL1       -0.3872
      4 O           6.9662   -0.5716    0.0000 O.2     1  UNL1       -0.2504
      5 O           2.0000   -1.3667    0.0000 O.2     1  UNL1       -0.2504
      6 N           4.8651    2.9878    0.0000 N.3     1  UNL1       -0.2886
      7 C           4.6559    2.0160    0.0000 C.3     1  UNL1        0.0723
      8 C           5.5220    1.5159    0.0000 C.3     1  UNL1        0.1235
      9 C           6.2590    2.1830    0.0000 C.3     1  UNL1       -0.0010
     10 C           5.8539    3.0908    0.0000 C.3     1  UNL1        0.0033
     11 C           3.7899    1.5159    0.0000 C.2     1  UNL1       -0.0148
     12 C           5.3695    2.1149    0.0000 C.3     1  UNL1        0.0182
     13 C           4.7748    1.3008    0.0000 C.2     1  UNL1       -0.0660
     14 C           4.6310   -1.6912    0.0000 C.3     1  UNL1        0.0885
     15 C           5.1310   -0.8251    0.0000 C.3     1  UNL1        0.0828
     16 C           3.7899    0.5159    0.0000 C.3     1  UNL1        0.1152
     17 C           3.6310   -1.6912    0.0000 C.3     1  UNL1        0.0828
     18 C           5.9970   -0.3251    0.0000 C.2     1  UNL1        0.3130
     19 C           5.6028   -1.9269    0.0000 C.3     1  UNL1       -0.0345
     20 C           2.9239   -0.9841    0.0000 C.2     1  UNL1        0.3130
     21 C           4.4239   -0.1180    0.0000 C.3     1  UNL1       -0.0496
     22 C           3.2483   -2.6150    0.0000 C.3     1  UNL1       -0.0496
     23 H           4.2309    2.7521    0.0000 H       1  UNL1        0.0547
     24 H           6.2989    1.1712    0.0000 H       1  UNL1        0.0753
     25 H           6.6244    1.6822    0.0000 H       1  UNL1        0.0314
     26 H           6.7955    2.4938    0.0000 H       1  UNL1        0.0314
     27 H           6.4435    3.2826    0.0000 H       1  UNL1        0.0428
     28 H           5.7251    3.6973    0.0000 H       1  UNL1        0.0428
     29 H           5.8148    1.6835    0.0000 H       1  UNL1        0.0470
     30 H           5.8583    2.4963    0.0000 H       1  UNL1        0.0470
     31 H           4.9946    0.7211    0.0000 H       1  UNL1        0.0586
     32 H           4.5163   -0.9061    0.0000 H       1  UNL1        0.0439
     33 H           4.0020   -0.0667    0.0000 H       1  UNL1        0.0746
     34 H           4.4005    0.6236    0.0000 H       1  UNL1        0.0746
     35 H           3.0229   -1.8121    0.0000 H       1  UNL1        0.0439
     36 H           5.4566   -2.5294    0.0000 H       1  UNL1        0.0258
     37 H           6.2053   -2.0731    0.0000 H       1  UNL1        0.0258
     38 H           5.7490   -1.3244    0.0000 H       1  UNL1        0.0258
     39 H           4.8623    0.3204    0.0000 H       1  UNL1        0.0238
     40 H           3.9855    0.3204    0.0000 H       1  UNL1        0.0238
     41 H           3.9855   -0.5564    0.0000 H       1  UNL1        0.0238
     42 H           2.6755   -2.3778    0.0000 H       1  UNL1        0.0238
     43 H           3.0110   -3.1878    0.0000 H       1  UNL1        0.0238
     44 H           3.8211   -2.8523    0.0000 H       1  UNL1        0.0238
     45 H           4.4180   -3.0908    0.0000 H       1  UNL1        0.2102
@<TRIPOS>BOND
     1     1     8    1
     2     1    18    1
     3     2    16    1
     4     2    20    1
     5     3    14    1
     6     3    45    1
     7     4    18    2
     8     5    20    2
     9     6     7    1
    10     6    10    1
    11     6    12    1
    12     7     8    1
    13     7    11    1
    14     7    23    1
    15     8     9    1
    16     8    24    1
    17     9    10    1
    18     9    25    1
    19     9    26    1
    20    10    27    1
    21    10    28    1
    22    11    13    2
    23    11    16    1
    24    12    13    1
    25    12    29    1
    26    12    30    1
    27    13    31    1
    28    14    15    1
    29    14    17    1
    30    14    19    1
    31    15    18    1
    32    15    21    1
    33    15    32    1
    34    16    33    1
    35    16    34    1
    36    17    20    1
    37    17    22    1
    38    17    35    1
    39    19    36    1
    40    19    37    1
    41    19    38    1
    42    21    39    1
    43    21    40    1
    44    21    41    1
    45    22    42    1
    46    22    43    1
    47    22    44    1
