@<TRIPOS>MOLECULE
IMPHY008020
 66 69 0 0 0
SMALL
GASTEIGER

@<TRIPOS>ATOM
      1 O           7.2331    3.1645    0.0000 O.3     1  UNL1       -0.3872
      2 O           6.8671   -0.2015    0.0000 O.3     1  UNL1       -0.3363
      3 O           5.6102    3.0538    0.0000 O.2     1  UNL1       -0.2963
      4 O           5.1350   -0.2015    0.0000 O.3     1  UNL1       -0.3395
      5 O           6.8671   -2.2015    0.0000 O.3     1  UNL1       -0.4537
      6 O           5.1350   -3.2015    0.0000 O.3     1  UNL1       -0.3853
      7 O           3.4030   -2.2015    0.0000 O.3     1  UNL1       -0.3864
      8 O           2.5369   -0.7015    0.0000 O.3     1  UNL1       -0.3924
      9 O           6.0010   -3.7015    0.0000 O.2     1  UNL1       -0.2512
     10 C           8.5991    1.7985    0.0000 C.3     1  UNL1        0.0209
     11 C           7.7331    2.2985    0.0000 C.3     1  UNL1        0.0850
     12 C           6.8671    1.7985    0.0000 C.3     1  UNL1        0.0799
     13 C           9.5991    1.7985    0.0000 C.3     1  UNL1       -0.0401
     14 C           9.0991    2.6645    0.0000 C.3     1  UNL1       -0.0401
     15 C           6.8671    0.7985    0.0000 C.3     1  UNL1        0.1040
     16 C           8.5991    0.7985    0.0000 C.2     1  UNL1       -0.0649
     17 C           5.9208    0.4938    0.0000 C.3     1  UNL1       -0.0074
     18 C           5.3372    1.2985    0.0000 C.3     1  UNL1        0.0268
     19 C           7.7331    0.2985    0.0000 C.2     1  UNL1       -0.0521
     20 C           5.9208    2.1032    0.0000 C.2     1  UNL1        0.1479
     21 C           8.2331    3.1645    0.0000 C.3     1  UNL1       -0.0345
     22 C           9.4651    0.2985    0.0000 C.3     1  UNL1       -0.0431
     23 C           4.5282    1.8863    0.0000 C.3     1  UNL1       -0.0530
     24 C           4.5282    0.7107    0.0000 C.3     1  UNL1       -0.0530
     25 C           6.0010   -0.7015    0.0000 C.3     1  UNL1        0.2001
     26 C           6.0010   -1.7015    0.0000 C.3     1  UNL1        0.1816
     27 C           5.1350   -2.2015    0.0000 C.3     1  UNL1        0.1251
     28 C           4.2690   -0.7015    0.0000 C.3     1  UNL1        0.1131
     29 C           4.2690   -1.7015    0.0000 C.3     1  UNL1        0.1130
     30 C           3.4030   -0.2015    0.0000 C.3     1  UNL1        0.0730
     31 C           6.8671   -3.2015    0.0000 C.2     1  UNL1        0.3044
     32 C           7.7331   -3.7015    0.0000 C.3     1  UNL1        0.0332
     33 H           6.7771    2.6438    0.0000 H       1  UNL1        0.0438
     34 H           9.5741    3.0631    0.0000 H       1  UNL1        0.0275
     35 H           8.6242    3.0631    0.0000 H       1  UNL1        0.0275
     36 H           9.7068    1.1879    0.0000 H       1  UNL1        0.0275
     37 H          10.1817    2.0106    0.0000 H       1  UNL1        0.0275
     38 H           5.3835    0.1846    0.0000 H       1  UNL1        0.0306
     39 H           6.1719   -0.0731    0.0000 H       1  UNL1        0.0306
     40 H           7.7331   -0.3215    0.0000 H       1  UNL1        0.0600
     41 H           8.7700    2.8545    0.0000 H       1  UNL1        0.0258
     42 H           8.5431    3.7015    0.0000 H       1  UNL1        0.0258
     43 H           7.6962    3.4746    0.0000 H       1  UNL1        0.0258
     44 H           7.5431    3.7015    0.0000 H       1  UNL1        0.2102
     45 H           9.1551   -0.2384    0.0000 H       1  UNL1        0.0275
     46 H          10.0021   -0.0115    0.0000 H       1  UNL1        0.0275
     47 H           9.7751    0.8355    0.0000 H       1  UNL1        0.0275
     48 H           4.8926    2.3879    0.0000 H       1  UNL1        0.0239
     49 H           4.0266    2.2507    0.0000 H       1  UNL1        0.0239
     50 H           4.1638    1.3847    0.0000 H       1  UNL1        0.0239
     51 H           4.1638    1.2123    0.0000 H       1  UNL1        0.0239
     52 H           4.0266    0.3463    0.0000 H       1  UNL1        0.0239
     53 H           4.8926    0.2091    0.0000 H       1  UNL1        0.0239
     54 H           6.0010   -0.0815    0.0000 H       1  UNL1        0.0950
     55 H           6.0010   -2.3215    0.0000 H       1  UNL1        0.0813
     56 H           4.5981   -2.5115    0.0000 H       1  UNL1        0.0659
     57 H           4.2690   -0.0815    0.0000 H       1  UNL1        0.0647
     58 H           3.7320   -1.3915    0.0000 H       1  UNL1        0.0647
     59 H           3.8015    0.2735    0.0000 H       1  UNL1        0.0584
     60 H           3.0044    0.2735    0.0000 H       1  UNL1        0.0584
     61 H           4.5981   -3.5115    0.0000 H       1  UNL1        0.2101
     62 H           3.4030   -2.8215    0.0000 H       1  UNL1        0.2100
     63 H           2.0000   -0.3915    0.0000 H       1  UNL1        0.2095
     64 H           7.4231   -4.2384    0.0000 H       1  UNL1        0.0342
     65 H           8.2700   -4.0115    0.0000 H       1  UNL1        0.0342
     66 H           8.0431   -3.1646    0.0000 H       1  UNL1        0.0342
@<TRIPOS>BOND
     1    11     1    1
     2     1    44    1
     3    15     2    1
     4    25     2    1
     5     3    20    2
     6     4    25    1
     7     4    28    1
     8    26     5    1
     9     5    31    1
    10    27     6    1
    11     6    61    1
    12    29     7    1
    13     7    62    1
    14     8    30    1
    15     8    63    1
    16     9    31    2
    17    10    11    1
    18    10    13    1
    19    10    14    1
    20    10    16    1
    21    11    12    1
    22    11    21    1
    23    12    15    1
    24    12    20    1
    25    12    33    1
    26    13    14    1
    27    13    36    1
    28    13    37    1
    29    14    34    1
    30    14    35    1
    31    15    17    1
    32    15    19    1
    33    16    19    2
    34    16    22    1
    35    17    18    1
    36    17    38    1
    37    17    39    1
    38    18    20    1
    39    18    23    1
    40    18    24    1
    41    19    40    1
    42    21    41    1
    43    21    42    1
    44    21    43    1
    45    22    45    1
    46    22    46    1
    47    22    47    1
    48    23    48    1
    49    23    49    1
    50    23    50    1
    51    24    51    1
    52    24    52    1
    53    24    53    1
    54    25    26    1
    55    25    54    1
    56    26    27    1
    57    26    55    1
    58    27    29    1
    59    27    56    1
    60    28    29    1
    61    28    30    1
    62    28    57    1
    63    29    58    1
    64    30    59    1
    65    30    60    1
    66    31    32    1
    67    32    64    1
    68    32    65    1
    69    32    66    1
