@<TRIPOS>MOLECULE
IMPHY010908
 82 82 0 0 0
SMALL
GASTEIGER

@<TRIPOS>ATOM
      1 O           5.5981   -2.2500    0.0000 O.3     1  UNL1       -0.3888
      2 O           5.4641   -4.7500    0.0000 O.2     1  UNL1       -0.2873
      3 O           2.0000   -6.7500    0.0000 O.2     1  UNL1       -0.2873
      4 C           6.3301    0.7500    0.0000 C.3     1  UNL1       -0.0439
      5 C           5.4641    0.2500    0.0000 C.3     1  UNL1       -0.0504
      6 C           6.3301    1.7500    0.0000 C.3     1  UNL1       -0.0505
      7 C           4.5981   -2.2500    0.0000 C.3     1  UNL1        0.0636
      8 C           5.4641   -0.7500    0.0000 C.3     1  UNL1       -0.0502
      9 C           7.1962    2.2500    0.0000 C.3     1  UNL1       -0.0526
     10 C           4.5981   -1.2500    0.0000 C.3     1  UNL1       -0.0242
     11 C           8.0622    3.7500    0.0000 C.3     1  UNL1       -0.0439
     12 C           7.1962    3.2500    0.0000 C.3     1  UNL1       -0.0505
     13 C           8.0622    4.7500    0.0000 C.3     1  UNL1       -0.0505
     14 C           4.5981   -3.2500    0.0000 C.3     1  UNL1       -0.0202
     15 C           7.1962    0.2500    0.0000 C.3     1  UNL1       -0.0624
     16 C           8.9282    5.2500    0.0000 C.3     1  UNL1       -0.0526
     17 C           3.5981   -2.2500    0.0000 C.3     1  UNL1       -0.0361
     18 C           8.9282    3.2500    0.0000 C.3     1  UNL1       -0.0624
     19 C           3.7320   -3.7500    0.0000 C.3     1  UNL1       -0.0211
     20 C           8.9282    6.2500    0.0000 C.3     1  UNL1       -0.0507
     21 C           9.7942    6.7500    0.0000 C.3     1  UNL1       -0.0467
     22 C           3.7320   -4.7500    0.0000 C.2     1  UNL1        0.0062
     23 C           9.7942    7.7500    0.0000 C.3     1  UNL1       -0.0627
     24 C          10.6603    6.2500    0.0000 C.3     1  UNL1       -0.0627
     25 C           2.8660   -5.2500    0.0000 C.2     1  UNL1        0.0033
     26 C           4.5981   -5.2500    0.0000 C.2     1  UNL1        0.1857
     27 C           4.5981   -6.2500    0.0000 C.2     1  UNL1        0.0030
     28 C           2.8660   -6.2500    0.0000 C.2     1  UNL1        0.1855
     29 C           3.7320   -6.7500    0.0000 C.2     1  UNL1        0.0030
     30 C           2.0000   -4.7500    0.0000 C.3     1  UNL1       -0.0357
     31 C           5.4641   -6.7500    0.0000 C.3     1  UNL1       -0.0357
     32 C           3.7320   -7.7500    0.0000 C.3     1  UNL1       -0.0357
     33 H           6.8671    1.0600    0.0000 H       1  UNL1        0.0298
     34 H           5.2520    0.8326    0.0000 H       1  UNL1        0.0268
     35 H           4.8535    0.1423    0.0000 H       1  UNL1        0.0268
     36 H           6.1181    2.3326    0.0000 H       1  UNL1        0.0268
     37 H           5.7196    1.6423    0.0000 H       1  UNL1        0.0268
     38 H           5.6762   -1.3326    0.0000 H       1  UNL1        0.0266
     39 H           6.0747   -0.6423    0.0000 H       1  UNL1        0.0266
     40 H           7.4082    1.6674    0.0000 H       1  UNL1        0.0265
     41 H           7.8067    2.3577    0.0000 H       1  UNL1        0.0265
     42 H           4.3860   -0.6674    0.0000 H       1  UNL1        0.0293
     43 H           3.9875   -1.3577    0.0000 H       1  UNL1        0.0293
     44 H           8.0622    3.1300    0.0000 H       1  UNL1        0.0298
     45 H           6.9841    3.8326    0.0000 H       1  UNL1        0.0268
     46 H           6.5856    3.1423    0.0000 H       1  UNL1        0.0268
     47 H           7.8501    5.3326    0.0000 H       1  UNL1        0.0268
     48 H           7.4516    4.6423    0.0000 H       1  UNL1        0.0268
     49 H           4.8101   -3.8326    0.0000 H       1  UNL1        0.0296
     50 H           5.2087   -3.1423    0.0000 H       1  UNL1        0.0296
     51 H           6.8862   -0.2869    0.0000 H       1  UNL1        0.0232
     52 H           7.7331   -0.0600    0.0000 H       1  UNL1        0.0232
     53 H           7.5062    0.7869    0.0000 H       1  UNL1        0.0232
     54 H           9.1403    4.6674    0.0000 H       1  UNL1        0.0265
     55 H           9.5388    5.3577    0.0000 H       1  UNL1        0.0265
     56 H           3.5981   -1.6300    0.0000 H       1  UNL1        0.0257
     57 H           2.9781   -2.2500    0.0000 H       1  UNL1        0.0257
     58 H           3.5981   -2.8700    0.0000 H       1  UNL1        0.0257
     59 H           8.6182    2.7131    0.0000 H       1  UNL1        0.0232
     60 H           9.4651    2.9400    0.0000 H       1  UNL1        0.0232
     61 H           9.2382    3.7869    0.0000 H       1  UNL1        0.0232
     62 H           3.5200   -3.1674    0.0000 H       1  UNL1        0.0315
     63 H           3.1215   -3.8577    0.0000 H       1  UNL1        0.0315
     64 H           8.7162    6.8326    0.0000 H       1  UNL1        0.0268
     65 H           8.3176    6.1423    0.0000 H       1  UNL1        0.0268
     66 H           9.2573    7.0600    0.0000 H       1  UNL1        0.0295
     67 H           5.9081   -2.7869    0.0000 H       1  UNL1        0.2101
     68 H          10.4142    7.7500    0.0000 H       1  UNL1        0.0232
     69 H           9.7942    8.3700    0.0000 H       1  UNL1        0.0232
     70 H           9.1742    7.7500    0.0000 H       1  UNL1        0.0232
     71 H          10.3503    5.7131    0.0000 H       1  UNL1        0.0232
     72 H          11.1972    5.9400    0.0000 H       1  UNL1        0.0232
     73 H          10.9703    6.7869    0.0000 H       1  UNL1        0.0232
     74 H           2.3100   -4.2131    0.0000 H       1  UNL1        0.0279
     75 H           1.4631   -4.4400    0.0000 H       1  UNL1        0.0279
     76 H           1.6900   -5.2869    0.0000 H       1  UNL1        0.0279
     77 H           5.1541   -7.2869    0.0000 H       1  UNL1        0.0279
     78 H           6.0010   -7.0600    0.0000 H       1  UNL1        0.0279
     79 H           5.7741   -6.2131    0.0000 H       1  UNL1        0.0279
     80 H           3.1120   -7.7500    0.0000 H       1  UNL1        0.0279
     81 H           3.7320   -8.3700    0.0000 H       1  UNL1        0.0279
     82 H           4.3520   -7.7500    0.0000 H       1  UNL1        0.0279
@<TRIPOS>BOND
     1     7     1    1
     2     1    67    1
     3     2    26    2
     4     3    28    2
     5     4     5    1
     6     4     6    1
     7     4    15    1
     8     4    33    1
     9     5     8    1
    10     5    34    1
    11     5    35    1
    12     6     9    1
    13     6    36    1
    14     6    37    1
    15     7    10    1
    16     7    14    1
    17     7    17    1
    18     8    10    1
    19     8    38    1
    20     8    39    1
    21     9    12    1
    22     9    40    1
    23     9    41    1
    24    10    42    1
    25    10    43    1
    26    11    12    1
    27    11    13    1
    28    11    18    1
    29    11    44    1
    30    12    45    1
    31    12    46    1
    32    13    16    1
    33    13    47    1
    34    13    48    1
    35    14    19    1
    36    14    49    1
    37    14    50    1
    38    15    51    1
    39    15    52    1
    40    15    53    1
    41    16    20    1
    42    16    54    1
    43    16    55    1
    44    17    56    1
    45    17    57    1
    46    17    58    1
    47    18    59    1
    48    18    60    1
    49    18    61    1
    50    19    22    1
    51    19    62    1
    52    19    63    1
    53    20    21    1
    54    20    64    1
    55    20    65    1
    56    21    23    1
    57    21    24    1
    58    21    66    1
    59    22    25    2
    60    22    26    1
    61    23    68    1
    62    23    69    1
    63    23    70    1
    64    24    71    1
    65    24    72    1
    66    24    73    1
    67    25    28    1
    68    25    30    1
    69    26    27    1
    70    27    29    2
    71    27    31    1
    72    28    29    1
    73    29    32    1
    74    30    74    1
    75    30    75    1
    76    30    76    1
    77    31    77    1
    78    31    78    1
    79    31    79    1
    80    32    80    1
    81    32    81    1
    82    32    82    1
