@<TRIPOS>MOLECULE
IMPHY007676
 33 34 0 0 0
SMALL
GASTEIGER

@<TRIPOS>ATOM
      1 O           5.1350    0.7500    0.0000 O.3     1  UNL1       -0.4563
      2 O           6.0010   -2.7500    0.0000 O.3     1  UNL1       -0.4951
      3 O           2.5369   -0.7500    0.0000 O.3     1  UNL1       -0.5059
      4 O           3.4030    0.7500    0.0000 O.2     1  UNL1       -0.2448
      5 C           4.2690   -0.7500    0.0000 C.ar    1  UNL1        0.1037
      6 C           6.0010    2.2500    0.0000 C.ar    1  UNL1       -0.0103
      7 C           5.1350    1.7500    0.0000 C.3     1  UNL1        0.1179
      8 C           5.1350   -1.2500    0.0000 C.ar    1  UNL1       -0.0024
      9 C           3.4030   -1.2500    0.0000 C.ar    1  UNL1        0.1310
     10 C           5.1350   -2.2500    0.0000 C.ar    1  UNL1        0.1211
     11 C           4.2690    0.2500    0.0000 C.2     1  UNL1        0.3432
     12 C           6.8671    1.7500    0.0000 C.ar    1  UNL1       -0.0554
     13 C           6.0010    3.2500    0.0000 C.ar    1  UNL1       -0.0554
     14 C           3.4030   -2.2500    0.0000 C.ar    1  UNL1       -0.0159
     15 C           4.2690   -2.7500    0.0000 C.ar    1  UNL1       -0.0165
     16 C           7.7331    2.2500    0.0000 C.ar    1  UNL1       -0.0614
     17 C           6.8671    3.7500    0.0000 C.ar    1  UNL1       -0.0614
     18 C           7.7331    3.2500    0.0000 C.ar    1  UNL1       -0.0617
     19 C           6.0010   -3.7500    0.0000 C.3     1  UNL1        0.0788
     20 H           4.9230    2.3326    0.0000 H       1  UNL1        0.0749
     21 H           4.5244    1.6423    0.0000 H       1  UNL1        0.0749
     22 H           5.6720   -0.9400    0.0000 H       1  UNL1        0.0663
     23 H           6.8671    1.1300    0.0000 H       1  UNL1        0.0621
     24 H           5.4641    3.5600    0.0000 H       1  UNL1        0.0621
     25 H           2.8660   -2.5600    0.0000 H       1  UNL1        0.0655
     26 H           4.2690   -3.3700    0.0000 H       1  UNL1        0.0655
     27 H           8.2700    1.9400    0.0000 H       1  UNL1        0.0618
     28 H           6.8671    4.3700    0.0000 H       1  UNL1        0.0618
     29 H           8.2700    3.5600    0.0000 H       1  UNL1        0.0618
     30 H           2.0000   -1.0600    0.0000 H       1  UNL1        0.2922
     31 H           5.3810   -3.7500    0.0000 H       1  UNL1        0.0660
     32 H           6.0010   -4.3700    0.0000 H       1  UNL1        0.0660
     33 H           6.6210   -3.7500    0.0000 H       1  UNL1        0.0660
@<TRIPOS>BOND
     1     1     7    1
     2     1    11    1
     3     2    10    1
     4     2    19    1
     5     3     9    1
     6     3    30    1
     7     4    11    2
     8     5     8   ar
     9     5     9   ar
    10     5    11    1
    11     6     7    1
    12     6    12   ar
    13     6    13   ar
    14     7    20    1
    15     7    21    1
    16     8    10   ar
    17     8    22    1
    18     9    14   ar
    19    10    15   ar
    20    12    16   ar
    21    12    23    1
    22    13    17   ar
    23    13    24    1
    24    14    15   ar
    25    14    25    1
    26    15    26    1
    27    16    18   ar
    28    16    27    1
    29    17    18   ar
    30    17    28    1
    31    18    29    1
    32    19    31    1
    33    19    32    1
    34    19    33    1
