@<TRIPOS>MOLECULE
IMPHY013031
 40 43 0 0 0
SMALL
GASTEIGER

@<TRIPOS>ATOM
      1 O           4.3177    0.4203    0.0000 O.3     1  UNL1       -0.2181
      2 O           5.7899    1.1100    0.0000 O.3     1  UNL1       -0.3045
      3 O           4.5402    1.3953    0.0000 O.3     1  UNL1       -0.1988
      4 O           6.4870   -0.3207    0.0000 O.3     1  UNL1       -0.4285
      5 O           7.4004   -1.8275    0.0000 O.2     1  UNL1       -0.2452
      6 C           4.6664   -0.2988    0.0000 C.3     1  UNL1        0.1762
      7 C           3.7655    0.1351    0.0000 C.3     1  UNL1        0.0004
      8 C           4.7603   -1.3362    0.0000 C.3     1  UNL1        0.0287
      9 C           2.8959   -0.4383    0.0000 C.3     1  UNL1       -0.0381
     10 C           5.5674    0.1351    0.0000 C.3     1  UNL1        0.2405
     11 C           3.5430    1.1100    0.0000 C.3     1  UNL1       -0.0421
     12 C           3.9042   -1.9296    0.0000 C.3     1  UNL1       -0.0428
     13 C           2.9657   -1.4776    0.0000 C.3     1  UNL1       -0.0495
     14 C           5.1664    1.8919    0.0000 C.3     1  UNL1        0.2038
     15 C           4.1664    1.8919    0.0000 C.3     1  UNL1        0.0044
     16 C           5.6389   -1.8668    0.0000 C.2     1  UNL1        0.0357
     17 C           2.0000    0.0059    0.0000 C.3     1  UNL1       -0.0621
     18 C           6.5237   -1.3465    0.0000 C.2     1  UNL1        0.3372
     19 C           5.3890    2.8668    0.0000 C.3     1  UNL1       -0.0077
     20 C           5.6330   -2.8668    0.0000 C.2     1  UNL1       -0.0884
     21 H           2.9996    0.5039    0.0000 H       1  UNL1        0.0334
     22 H           4.7870   -2.1858    0.0000 H       1  UNL1        0.0382
     23 H           2.3803   -0.7826    0.0000 H       1  UNL1        0.0302
     24 H           5.8780   -0.6561    0.0000 H       1  UNL1        0.1090
     25 H           3.1564    1.5948    0.0000 H       1  UNL1        0.0271
     26 H           2.9844    0.8410    0.0000 H       1  UNL1        0.0271
     27 H           3.5436   -2.4339    0.0000 H       1  UNL1        0.0272
     28 H           4.3394   -2.3712    0.0000 H       1  UNL1        0.0272
     29 H           2.3491   -1.4127    0.0000 H       1  UNL1        0.0268
     30 H           2.7963   -2.0740    0.0000 H       1  UNL1        0.0268
     31 H           4.3044    2.4963    0.0000 H       1  UNL1        0.0318
     32 H           3.6078    2.1609    0.0000 H       1  UNL1        0.0318
     33 H           2.2755    0.5614    0.0000 H       1  UNL1        0.0233
     34 H           1.4446    0.2814    0.0000 H       1  UNL1        0.0233
     35 H           1.7246   -0.5495    0.0000 H       1  UNL1        0.0233
     36 H           5.9934    2.7288    0.0000 H       1  UNL1        0.0282
     37 H           5.5269    3.4712    0.0000 H       1  UNL1        0.0282
     38 H           4.7845    3.0048    0.0000 H       1  UNL1        0.0282
     39 H           5.0943   -3.1736    0.0000 H       1  UNL1        0.0540
     40 H           6.1681   -3.1799    0.0000 H       1  UNL1        0.0540
@<TRIPOS>BOND
     1     1     3    1
     2     6     1    1
     3     2    10    1
     4     2    14    1
     5     3    14    1
     6     4    10    1
     7     4    18    1
     8     5    18    2
     9     6     7    1
    10     6     8    1
    11     6    10    1
    12     7     9    1
    13     7    11    1
    14     7    21    1
    15     8    12    1
    16     8    16    1
    17     8    22    1
    18     9    13    1
    19     9    17    1
    20     9    23    1
    21    10    24    1
    22    11    15    1
    23    11    25    1
    24    11    26    1
    25    12    13    1
    26    12    27    1
    27    12    28    1
    28    13    29    1
    29    13    30    1
    30    14    15    1
    31    14    19    1
    32    15    31    1
    33    15    32    1
    34    16    18    1
    35    16    20    2
    36    17    33    1
    37    17    34    1
    38    17    35    1
    39    19    36    1
    40    19    37    1
    41    19    38    1
    42    20    39    1
    43    20    40    1
