@<TRIPOS>MOLECULE
IMPHY000180
 52 54 0 0 0
SMALL
GASTEIGER

@<TRIPOS>ATOM
      1 O           2.3038   -2.5790    0.0000 O.3     1  UNL1       -0.3944
      2 O           2.0235    0.3631    0.0000 O.2     1  UNL1       -0.2974
      3 C           4.6876   -0.1610    0.0000 C.3     1  UNL1       -0.0155
      4 C           4.6876   -1.1610    0.0000 C.3     1  UNL1       -0.0265
      5 C           5.5536    0.3390    0.0000 C.3     1  UNL1       -0.0138
      6 C           3.7937   -1.6957    0.0000 C.3     1  UNL1        0.0011
      7 C           5.5536   -1.6610    0.0000 C.3     1  UNL1       -0.0454
      8 C           3.7937    0.3736    0.0000 C.3     1  UNL1        0.0121
      9 C           6.4196   -0.1610    0.0000 C.2     1  UNL1       -0.0690
     10 C           6.4196   -1.1610    0.0000 C.3     1  UNL1       -0.0311
     11 C           5.5376    1.3805    0.0000 C.3     1  UNL1       -0.0449
     12 C           2.8876   -1.1818    0.0000 C.3     1  UNL1        0.0136
     13 C           4.6876    0.8390    0.0000 C.3     1  UNL1       -0.0584
     14 C           2.8876   -0.1402    0.0000 C.2     1  UNL1        0.1345
     15 C           6.4356    1.9082    0.0000 C.3     1  UNL1       -0.0401
     16 C           7.3377    1.3874    0.0000 C.3     1  UNL1        0.0039
     17 C           3.3037   -2.5674    0.0000 C.3     1  UNL1        0.0502
     18 C           4.3036   -2.5559    0.0000 C.3     1  UNL1       -0.0568
     19 C           7.3296    0.3458    0.0000 C.2     1  UNL1       -0.0749
     20 C           8.3377    1.3836    0.0000 C.3     1  UNL1       -0.0526
     21 C           7.8410    2.2515    0.0000 C.2     1  UNL1       -0.0815
     22 C           7.3444    3.1195    0.0000 C.2     1  UNL1       -0.1018
     23 H           4.6941   -2.0110    0.0000 H       1  UNL1        0.0312
     24 H           6.2864    0.7696    0.0000 H       1  UNL1        0.0351
     25 H           5.1551   -2.1360    0.0000 H       1  UNL1        0.0271
     26 H           5.9521   -2.1360    0.0000 H       1  UNL1        0.0271
     27 H           4.1982    0.8434    0.0000 H       1  UNL1        0.0347
     28 H           3.4000    0.8527    0.0000 H       1  UNL1        0.0347
     29 H           6.6317   -1.7436    0.0000 H       1  UNL1        0.0310
     30 H           7.0302   -1.0534    0.0000 H       1  UNL1        0.0310
     31 H           5.3195    1.9609    0.0000 H       1  UNL1        0.0272
     32 H           4.9284    1.2650    0.0000 H       1  UNL1        0.0272
     33 H           2.2767   -1.0757    0.0000 H       1  UNL1        0.0348
     34 H           2.6785   -1.7655    0.0000 H       1  UNL1        0.0348
     35 H           5.3076    0.8390    0.0000 H       1  UNL1        0.0235
     36 H           4.6876    1.4590    0.0000 H       1  UNL1        0.0235
     37 H           4.0676    0.8390    0.0000 H       1  UNL1        0.0235
     38 H           6.8329    2.3842    0.0000 H       1  UNL1        0.0277
     39 H           6.0346    2.3811    0.0000 H       1  UNL1        0.0277
     40 H           3.2031   -3.1792    0.0000 H       1  UNL1        0.0563
     41 H           3.8887   -2.7727    0.0000 H       1  UNL1        0.0563
     42 H           3.7703   -2.8721    0.0000 H       1  UNL1        0.0236
     43 H           4.6198   -3.0892    0.0000 H       1  UNL1        0.0236
     44 H           4.8370   -2.2397    0.0000 H       1  UNL1        0.0236
     45 H           7.8630    0.0296    0.0000 H       1  UNL1        0.0580
     46 H           8.3353    0.7636    0.0000 H       1  UNL1        0.0241
     47 H           8.9577    1.3812    0.0000 H       1  UNL1        0.0241
     48 H           8.3401    2.0036    0.0000 H       1  UNL1        0.0241
     49 H           8.4610    2.2491    0.0000 H       1  UNL1        0.0575
     50 H           2.0000   -3.1195    0.0000 H       1  UNL1        0.2094
     51 H           7.6564    3.6552    0.0000 H       1  UNL1        0.0532
     52 H           6.7244    3.1219    0.0000 H       1  UNL1        0.0532
@<TRIPOS>BOND
     1     1    17    1
     2     1    50    1
     3     2    14    2
     4     3     4    1
     5     3     5    1
     6     3     8    1
     7     3    13    1
     8     4     6    1
     9     4     7    1
    10     4    23    1
    11     5     9    1
    12     5    11    1
    13     5    24    1
    14     6    12    1
    15     6    17    1
    16     6    18    1
    17     7    10    1
    18     7    25    1
    19     7    26    1
    20     8    14    1
    21     8    27    1
    22     8    28    1
    23     9    10    1
    24     9    19    2
    25    10    29    1
    26    10    30    1
    27    11    15    1
    28    11    31    1
    29    11    32    1
    30    12    14    1
    31    12    33    1
    32    12    34    1
    33    13    35    1
    34    13    36    1
    35    13    37    1
    36    15    16    1
    37    15    38    1
    38    15    39    1
    39    16    19    1
    40    16    20    1
    41    16    21    1
    42    17    40    1
    43    17    41    1
    44    18    42    1
    45    18    43    1
    46    18    44    1
    47    19    45    1
    48    20    46    1
    49    20    47    1
    50    20    48    1
    51    21    22    2
    52    21    49    1
    53    22    51    1
    54    22    52    1
