@<TRIPOS>MOLECULE
IMPHY014711
 38 38 0 0 0
SMALL
GASTEIGER

@<TRIPOS>ATOM
      1 O           3.7320   -0.9400    0.0000 O.2     1  UNL1       -0.2920
      2 C           4.5981   -0.4400    0.0000 C.3     1  UNL1       -0.0286
      3 C           4.5981   -1.4400    0.0000 C.3     1  UNL1       -0.0308
      4 C           3.7320    1.0600    0.0000 C.2     1  UNL1       -0.0022
      5 C           4.5981    1.5600    0.0000 C.3     1  UNL1       -0.0060
      6 C           5.4641    0.0600    0.0000 C.2     1  UNL1       -0.0759
      7 C           2.8660   -0.4400    0.0000 C.3     1  UNL1        0.0310
      8 C           2.8660   -1.4400    0.0000 C.2     1  UNL1       -0.0691
      9 C           5.4641    1.0600    0.0000 C.2     1  UNL1       -0.0806
     10 C           3.7320    0.0600    0.0000 C.2     1  UNL1        0.1634
     11 C           3.7320   -1.9400    0.0000 C.2     1  UNL1       -0.0843
     12 C           2.8660    1.5600    0.0000 C.2     1  UNL1       -0.0689
     13 C           6.3301   -0.4400    0.0000 C.3     1  UNL1       -0.0438
     14 C           2.0000   -1.9400    0.0000 C.3     1  UNL1       -0.0434
     15 C           2.8660    2.5600    0.0000 C.3     1  UNL1       -0.0434
     16 C           2.0000    1.0600    0.0000 C.3     1  UNL1       -0.0434
     17 H           4.3860    0.1426    0.0000 H       1  UNL1        0.0313
     18 H           3.9875   -0.5477    0.0000 H       1  UNL1        0.0313
     19 H           4.8101   -2.0226    0.0000 H       1  UNL1        0.0310
     20 H           5.2087   -1.3323    0.0000 H       1  UNL1        0.0310
     21 H           4.9966    2.0349    0.0000 H       1  UNL1        0.0357
     22 H           4.1996    2.0349    0.0000 H       1  UNL1        0.0357
     23 H           2.6540    0.1426    0.0000 H       1  UNL1        0.0390
     24 H           2.2554   -0.5477    0.0000 H       1  UNL1        0.0390
     25 H           6.0010    1.3700    0.0000 H       1  UNL1        0.0575
     26 H           3.7320   -2.5600    0.0000 H       1  UNL1        0.0572
     27 H           6.0201   -0.9769    0.0000 H       1  UNL1        0.0274
     28 H           6.8671   -0.7500    0.0000 H       1  UNL1        0.0274
     29 H           6.6401    0.0969    0.0000 H       1  UNL1        0.0274
     30 H           1.6900   -1.4031    0.0000 H       1  UNL1        0.0274
     31 H           1.4631   -2.2500    0.0000 H       1  UNL1        0.0274
     32 H           2.3100   -2.4769    0.0000 H       1  UNL1        0.0274
     33 H           3.4860    2.5600    0.0000 H       1  UNL1        0.0274
     34 H           2.8660    3.1800    0.0000 H       1  UNL1        0.0274
     35 H           2.2460    2.5600    0.0000 H       1  UNL1        0.0274
     36 H           1.6900    1.5969    0.0000 H       1  UNL1        0.0274
     37 H           1.4631    0.7500    0.0000 H       1  UNL1        0.0274
     38 H           2.3100    0.5231    0.0000 H       1  UNL1        0.0274
@<TRIPOS>BOND
     1     1    10    2
     2     2     3    1
     3     2     6    1
     4     2    17    1
     5     2    18    1
     6     3    11    1
     7     3    19    1
     8     3    20    1
     9     4     5    1
    10     4    10    1
    11     4    12    2
    12     5     9    1
    13     5    21    1
    14     5    22    1
    15     6     9    2
    16     6    13    1
    17     7     8    1
    18     7    10    1
    19     7    23    1
    20     7    24    1
    21     8    11    2
    22     8    14    1
    23     9    25    1
    24    11    26    1
    25    12    15    1
    26    12    16    1
    27    13    27    1
    28    13    28    1
    29    13    29    1
    30    14    30    1
    31    14    31    1
    32    14    32    1
    33    15    33    1
    34    15    34    1
    35    15    35    1
    36    16    36    1
    37    16    37    1
    38    16    38    1
