@<TRIPOS>MOLECULE
IMPHY000429
 88 92 0 0 0
SMALL
GASTEIGER

@<TRIPOS>ATOM
      1 O           2.5357   -3.0349    0.0000 O.3     1  UNL1       -0.3887
      2 O           2.5519   -0.9433    0.0000 O.3     1  UNL1       -0.3892
      3 O          10.2188    3.0654    0.0000 O.3     1  UNL1       -0.4582
      4 O          11.4608    0.0516    0.0000 O.3     1  UNL1       -0.4802
      5 O          10.6064   -1.4551    0.0000 O.2     1  UNL1       -0.2504
      6 O          11.7287    2.2168    0.0000 O.2     1  UNL1       -0.2511
      7 C           7.0628   -1.4826    0.0000 C.3     1  UNL1       -0.0194
      8 C           6.1968   -0.9826    0.0000 C.3     1  UNL1       -0.0257
      9 C           5.2868   -1.4895    0.0000 C.3     1  UNL1       -0.0226
     10 C           7.9288   -0.9826    0.0000 C.3     1  UNL1       -0.0051
     11 C           5.2787   -2.5311    0.0000 C.3     1  UNL1       -0.0277
     12 C           7.0789   -2.5241    0.0000 C.3     1  UNL1       -0.0463
     13 C           7.9288    0.0174    0.0000 C.2     1  UNL1       -0.0625
     14 C           6.1808   -3.0519    0.0000 C.3     1  UNL1       -0.0486
     15 C           4.3433   -3.0808    0.0000 C.3     1  UNL1       -0.0032
     16 C           8.8228    0.5520    0.0000 C.3     1  UNL1        0.0026
     17 C           6.1968    0.0174    0.0000 C.3     1  UNL1       -0.0306
     18 C           8.8228   -1.5173    0.0000 C.3     1  UNL1       -0.0424
     19 C           4.3599   -0.9254    0.0000 C.3     1  UNL1       -0.0184
     20 C           9.7288    0.0382    0.0000 C.3     1  UNL1        0.0746
     21 C           9.7288   -1.0034    0.0000 C.3     1  UNL1       -0.0359
     22 C           7.7056   -2.2487    0.0000 C.3     1  UNL1       -0.0585
     23 C           3.4037   -2.5383    0.0000 C.3     1  UNL1        0.0864
     24 C           7.0628    0.5174    0.0000 C.2     1  UNL1       -0.0836
     25 C           5.2945   -0.4895    0.0000 C.3     1  UNL1       -0.0589
     26 C           3.4120   -1.4533    0.0000 C.3     1  UNL1        0.0821
     27 C           8.7977    1.6368    0.0000 C.3     1  UNL1        0.0034
     28 C           8.2709   -1.9223    0.0000 C.3     1  UNL1       -0.0553
     29 C          10.6726    0.5734    0.0000 C.3     1  UNL1       -0.0331
     30 C           9.7288    2.1937    0.0000 C.3     1  UNL1        0.1139
     31 C          10.6726    1.6584    0.0000 C.3     1  UNL1       -0.0118
     32 C           3.8467   -3.9487    0.0000 C.3     1  UNL1       -0.0571
     33 C           4.8466   -3.9449    0.0000 C.3     1  UNL1       -0.0571
     34 C          10.5987   -0.4551    0.0000 C.2     1  UNL1        0.3115
     35 C           7.9222    2.1200    0.0000 C.3     1  UNL1       -0.0582
     36 C           9.2188    3.0539    0.0000 C.3     1  UNL1       -0.0246
     37 C          11.2187    3.0770    0.0000 C.2     1  UNL1        0.3045
     38 C          11.7087    3.9487    0.0000 C.3     1  UNL1        0.0333
     39 H           6.9329   -0.5576    0.0000 H       1  UNL1        0.0315
     40 H           5.2820   -3.3810    0.0000 H       1  UNL1        0.0312
     41 H           7.2969   -3.1045    0.0000 H       1  UNL1        0.0271
     42 H           7.6880   -2.4086    0.0000 H       1  UNL1        0.0271
     43 H           5.7835   -3.5278    0.0000 H       1  UNL1        0.0268
     44 H           6.5818   -3.5248    0.0000 H       1  UNL1        0.0268
     45 H           8.0786    0.9628    0.0000 H       1  UNL1        0.0360
     46 H           5.9847    0.6000    0.0000 H       1  UNL1        0.0310
     47 H           5.5862   -0.0903    0.0000 H       1  UNL1        0.0310
     48 H           8.4182   -1.9871    0.0000 H       1  UNL1        0.0274
     49 H           9.2164   -1.9963    0.0000 H       1  UNL1        0.0274
     50 H           4.7681   -0.4587    0.0000 H       1  UNL1        0.0296
     51 H           3.9700   -0.4433    0.0000 H       1  UNL1        0.0296
     52 H           9.9379   -1.5871    0.0000 H       1  UNL1        0.0276
     53 H          10.3397   -0.8973    0.0000 H       1  UNL1        0.0276
     54 H           7.2306   -2.6472    0.0000 H       1  UNL1        0.0235
     55 H           8.1041   -2.7236    0.0000 H       1  UNL1        0.0235
     56 H           8.1805   -1.8501    0.0000 H       1  UNL1        0.0235
     57 H           3.4025   -3.1583    0.0000 H       1  UNL1        0.0624
     58 H           7.0628    1.1374    0.0000 H       1  UNL1        0.0572
     59 H           5.9145   -0.4943    0.0000 H       1  UNL1        0.0235
     60 H           5.2993    0.1305    0.0000 H       1  UNL1        0.0235
     61 H           4.6745   -0.4847    0.0000 H       1  UNL1        0.0235
     62 H           3.4204   -0.8334    0.0000 H       1  UNL1        0.0619
     63 H           8.2674    1.3154    0.0000 H       1  UNL1        0.0343
     64 H           7.6884   -2.1344    0.0000 H       1  UNL1        0.0238
     65 H           8.4830   -2.5049    0.0000 H       1  UNL1        0.0238
     66 H           8.8535   -1.7102    0.0000 H       1  UNL1        0.0238
     67 H          10.8817   -0.0103    0.0000 H       1  UNL1        0.0277
     68 H          11.2835    0.6795    0.0000 H       1  UNL1        0.0277
     69 H          11.2835    1.5523    0.0000 H       1  UNL1        0.0304
     70 H          10.8817    2.2421    0.0000 H       1  UNL1        0.0304
     71 H           3.3085   -3.6408    0.0000 H       1  UNL1        0.0236
     72 H           3.5387   -4.4869    0.0000 H       1  UNL1        0.0236
     73 H           4.3848   -4.2567    0.0000 H       1  UNL1        0.0236
     74 H           4.3109   -4.2569    0.0000 H       1  UNL1        0.0236
     75 H           5.1587   -4.4806    0.0000 H       1  UNL1        0.0236
     76 H           5.3824   -3.6328    0.0000 H       1  UNL1        0.0236
     77 H           8.2218    2.6628    0.0000 H       1  UNL1        0.0234
     78 H           7.3794    2.4196    0.0000 H       1  UNL1        0.0234
     79 H           7.6226    1.5772    0.0000 H       1  UNL1        0.0234
     80 H           9.7522    3.3700    0.0000 H       1  UNL1        0.0268
     81 H           8.9027    3.5872    0.0000 H       1  UNL1        0.0268
     82 H           8.6855    2.7377    0.0000 H       1  UNL1        0.0268
     83 H           2.0000   -2.7229    0.0000 H       1  UNL1        0.2099
     84 H           2.5590   -0.3234    0.0000 H       1  UNL1        0.2099
     85 H          12.0001   -0.2543    0.0000 H       1  UNL1        0.2951
     86 H          12.2492    3.6450    0.0000 H       1  UNL1        0.0342
     87 H          12.0124    4.4892    0.0000 H       1  UNL1        0.0342
     88 H          11.1682    4.2525    0.0000 H       1  UNL1        0.0342
@<TRIPOS>BOND
     1    23     1    1
     2     1    83    1
     3    26     2    1
     4     2    84    1
     5    30     3    1
     6     3    37    1
     7     4    34    1
     8     4    85    1
     9     5    34    2
    10     6    37    2
    11     7     8    1
    12     7    10    1
    13     7    12    1
    14     7    22    1
    15     8     9    1
    16     8    17    1
    17     8    39    1
    18     9    11    1
    19     9    19    1
    20     9    25    1
    21    10    13    1
    22    10    18    1
    23    10    28    1
    24    11    14    1
    25    11    15    1
    26    11    40    1
    27    12    14    1
    28    12    41    1
    29    12    42    1
    30    13    16    1
    31    13    24    2
    32    14    43    1
    33    14    44    1
    34    15    23    1
    35    15    32    1
    36    15    33    1
    37    16    20    1
    38    16    27    1
    39    16    45    1
    40    17    24    1
    41    17    46    1
    42    17    47    1
    43    18    21    1
    44    18    48    1
    45    18    49    1
    46    19    26    1
    47    19    50    1
    48    19    51    1
    49    20    21    1
    50    20    29    1
    51    20    34    1
    52    21    52    1
    53    21    53    1
    54    22    54    1
    55    22    55    1
    56    22    56    1
    57    23    26    1
    58    23    57    1
    59    24    58    1
    60    25    59    1
    61    25    60    1
    62    25    61    1
    63    26    62    1
    64    27    30    1
    65    27    35    1
    66    27    63    1
    67    28    64    1
    68    28    65    1
    69    28    66    1
    70    29    31    1
    71    29    67    1
    72    29    68    1
    73    30    31    1
    74    30    36    1
    75    31    69    1
    76    31    70    1
    77    32    71    1
    78    32    72    1
    79    32    73    1
    80    33    74    1
    81    33    75    1
    82    33    76    1
    83    35    77    1
    84    35    78    1
    85    35    79    1
    86    36    80    1
    87    36    81    1
    88    36    82    1
    89    37    38    1
    90    38    86    1
    91    38    87    1
    92    38    88    1
