@<TRIPOS>MOLECULE
IMPHY007008
 77 80 0 0 0
SMALL
GASTEIGER

@<TRIPOS>ATOM
      1 O           8.3916   -3.9771    0.0000 O.3     1  UNL1       -0.4641
      2 O           9.6517   -2.7170    0.0000 O.2     1  UNL1       -0.2505
      3 O           7.8916    1.5617    0.0000 O.3     1  UNL1       -0.3865
      4 O           4.4275   -1.4383    0.0000 O.3     1  UNL1       -0.4914
      5 O           4.4275    0.5617    0.0000 O.3     1  UNL1       -0.5031
      6 O           5.2935    3.0617    0.0000 O.3     1  UNL1       -0.3943
      7 O           2.7431   -3.4373    0.0000 O.3     1  UNL1       -0.4914
      8 O           3.1590   -5.3936    0.0000 O.3     1  UNL1       -0.4915
      9 O           8.7576    5.0617    0.0000 O.3     1  UNL1       -0.4914
     10 O           7.0256    6.0617    0.0000 O.3     1  UNL1       -0.5033
     11 C           7.0826   -3.0261    0.0000 C.3     1  UNL1        0.0105
     12 C           7.8916   -2.4383    0.0000 C.3     1  UNL1        0.0666
     13 C           7.8916   -1.4383    0.0000 C.3     1  UNL1       -0.0142
     14 C           7.3916   -3.9771    0.0000 C.3     1  UNL1        0.0963
     15 C           6.1316   -2.7170    0.0000 C.3     1  UNL1       -0.0209
     16 C           8.7006   -3.0261    0.0000 C.2     1  UNL1        0.3109
     17 C           7.0256   -0.9383    0.0000 C.ar    1  UNL1       -0.0426
     18 C           5.3884   -3.3862    0.0000 C.ar    1  UNL1       -0.0433
     19 C           6.1596    1.5617    0.0000 C.3     1  UNL1        0.0409
     20 C           7.0256    0.0617    0.0000 C.ar    1  UNL1       -0.0512
     21 C           6.1596    0.5617    0.0000 C.ar    1  UNL1        0.0060
     22 C           6.1596   -1.4383    0.0000 C.ar    1  UNL1       -0.0131
     23 C           7.0256    2.0617    0.0000 C.3     1  UNL1        0.0893
     24 C           5.2935    0.0617    0.0000 C.ar    1  UNL1        0.1621
     25 C           5.2935   -0.9383    0.0000 C.ar    1  UNL1        0.1618
     26 C           4.4374   -3.0772    0.0000 C.ar    1  UNL1       -0.0131
     27 C           5.5963   -4.3643    0.0000 C.ar    1  UNL1       -0.0549
     28 C           5.2935    2.0617    0.0000 C.3     1  UNL1        0.0538
     29 C           7.0256    3.0617    0.0000 C.ar    1  UNL1       -0.0148
     30 C           3.6942   -3.7463    0.0000 C.ar    1  UNL1        0.1617
     31 C           4.8532   -5.0335    0.0000 C.ar    1  UNL1       -0.0160
     32 C           3.9021   -4.7244    0.0000 C.ar    1  UNL1        0.1615
     33 C           7.8916    3.5617    0.0000 C.ar    1  UNL1       -0.0107
     34 C           6.1596    3.5617    0.0000 C.ar    1  UNL1       -0.0524
     35 C           7.8916    4.5617    0.0000 C.ar    1  UNL1        0.1616
     36 C           6.1596    4.5617    0.0000 C.ar    1  UNL1       -0.0162
     37 C           4.4275   -2.4383    0.0000 C.3     1  UNL1        0.0790
     38 C           7.0256    5.0617    0.0000 C.ar    1  UNL1        0.1585
     39 C           2.0000   -4.1064    0.0000 C.3     1  UNL1        0.0790
     40 C           3.3669   -6.3717    0.0000 C.3     1  UNL1        0.0790
     41 C           8.7576    6.0617    0.0000 C.3     1  UNL1        0.0790
     42 H           6.9856   -2.4137    0.0000 H       1  UNL1        0.0345
     43 H           8.4440   -2.1568    0.0000 H       1  UNL1        0.0420
     44 H           8.5022   -1.5459    0.0000 H       1  UNL1        0.0321
     45 H           8.1037   -0.8557    0.0000 H       1  UNL1        0.0321
     46 H           6.7852   -4.1060    0.0000 H       1  UNL1        0.0700
     47 H           7.4564   -4.5937    0.0000 H       1  UNL1        0.0700
     48 H           6.4226   -2.1696    0.0000 H       1  UNL1        0.0317
     49 H           5.6430   -2.3353    0.0000 H       1  UNL1        0.0317
     50 H           6.1596    2.1817    0.0000 H       1  UNL1        0.0401
     51 H           7.5625    0.3717    0.0000 H       1  UNL1        0.0624
     52 H           6.1596   -2.0583    0.0000 H       1  UNL1        0.0658
     53 H           7.0256    1.4417    0.0000 H       1  UNL1        0.0650
     54 H           4.3084   -2.4707    0.0000 H       1  UNL1        0.0658
     55 H           6.1860   -4.5559    0.0000 H       1  UNL1        0.0621
     56 H           4.6830    2.1694    0.0000 H       1  UNL1        0.0564
     57 H           5.0815    1.4791    0.0000 H       1  UNL1        0.0564
     58 H           4.9821   -5.6399    0.0000 H       1  UNL1        0.0655
     59 H           8.4286    1.8717    0.0000 H       1  UNL1        0.2103
     60 H           8.4286    3.2517    0.0000 H       1  UNL1        0.0659
     61 H           3.8906    0.2517    0.0000 H       1  UNL1        0.2923
     62 H           5.6226    3.2517    0.0000 H       1  UNL1        0.0622
     63 H           4.7566    3.3717    0.0000 H       1  UNL1        0.2094
     64 H           5.6226    4.8717    0.0000 H       1  UNL1        0.0655
     65 H           3.8075   -2.4383    0.0000 H       1  UNL1        0.0660
     66 H           4.4275   -3.0583    0.0000 H       1  UNL1        0.0660
     67 H           5.0475   -2.4383    0.0000 H       1  UNL1        0.0660
     68 H           1.5851   -3.6457    0.0000 H       1  UNL1        0.0660
     69 H           1.5392   -4.5213    0.0000 H       1  UNL1        0.0660
     70 H           2.4149   -4.5672    0.0000 H       1  UNL1        0.0660
     71 H           2.7604   -6.5006    0.0000 H       1  UNL1        0.0660
     72 H           3.4958   -6.9782    0.0000 H       1  UNL1        0.0660
     73 H           3.9733   -6.2428    0.0000 H       1  UNL1        0.0660
     74 H           6.4887    6.3717    0.0000 H       1  UNL1        0.2923
     75 H           9.3776    6.0617    0.0000 H       1  UNL1        0.0660
     76 H           8.7576    6.6817    0.0000 H       1  UNL1        0.0660
     77 H           8.1376    6.0617    0.0000 H       1  UNL1        0.0660
@<TRIPOS>BOND
     1     1    14    1
     2     1    16    1
     3     2    16    2
     4     3    23    1
     5     3    59    1
     6     4    25    1
     7     4    37    1
     8     5    24    1
     9     5    61    1
    10     6    28    1
    11     6    63    1
    12     7    30    1
    13     7    39    1
    14     8    32    1
    15     8    40    1
    16     9    35    1
    17     9    41    1
    18    10    38    1
    19    10    74    1
    20    11    12    1
    21    11    14    1
    22    11    15    1
    23    11    42    1
    24    12    13    1
    25    12    16    1
    26    12    43    1
    27    13    17    1
    28    13    44    1
    29    13    45    1
    30    14    46    1
    31    14    47    1
    32    15    18    1
    33    15    48    1
    34    15    49    1
    35    17    20   ar
    36    17    22   ar
    37    18    26   ar
    38    18    27   ar
    39    19    21    1
    40    19    23    1
    41    19    28    1
    42    19    50    1
    43    20    21   ar
    44    20    51    1
    45    21    24   ar
    46    22    25   ar
    47    22    52    1
    48    23    29    1
    49    23    53    1
    50    24    25   ar
    51    26    30   ar
    52    26    54    1
    53    27    31   ar
    54    27    55    1
    55    28    56    1
    56    28    57    1
    57    29    33   ar
    58    29    34   ar
    59    30    32   ar
    60    31    32   ar
    61    31    58    1
    62    33    35   ar
    63    33    60    1
    64    34    36   ar
    65    34    62    1
    66    35    38   ar
    67    36    38   ar
    68    36    64    1
    69    37    65    1
    70    37    66    1
    71    37    67    1
    72    39    68    1
    73    39    69    1
    74    39    70    1
    75    40    71    1
    76    40    72    1
    77    40    73    1
    78    41    75    1
    79    41    76    1
    80    41    77    1
