@<TRIPOS>MOLECULE
IMPHY005088
 32 33 0 0 0
SMALL
GASTEIGER

@<TRIPOS>ATOM
      1 O           2.5314   -1.7615    0.0000 O.3     1  UNL1       -0.3883
      2 C           4.7788   -0.6847    0.0000 C.3     1  UNL1        0.0019
      3 C           4.3010    1.2638    0.0000 C.3     1  UNL1       -0.0240
      4 C           5.0376    0.2812    0.0000 C.3     1  UNL1       -0.0327
      5 C           3.4061   -1.2767    0.0000 C.3     1  UNL1        0.0694
      6 C           3.0640   -0.3370    0.0000 C.3     1  UNL1       -0.0204
      7 C           6.1777   -1.1935    0.0000 C.3     1  UNL1       -0.0442
      8 C           6.4365   -0.2276    0.0000 C.3     1  UNL1       -0.0490
      9 C           4.5200   -1.6506    0.0000 C.3     1  UNL1       -0.0565
     10 C           4.4055    2.2584    0.0000 C.3     1  UNL1       -0.0590
     11 C           3.3874    1.6706    0.0000 C.3     1  UNL1       -0.0590
     12 C           3.5969   -2.2584    0.0000 C.3     1  UNL1       -0.0355
     13 H           5.0236   -0.3386    0.0000 H       1  UNL1        0.0307
     14 H           2.8697    0.2517    0.0000 H       1  UNL1        0.0296
     15 H           2.4783   -0.5402    0.0000 H       1  UNL1        0.0296
     16 H           5.9828   -1.7821    0.0000 H       1  UNL1        0.0272
     17 H           6.7717   -1.3713    0.0000 H       1  UNL1        0.0272
     18 H           7.0305   -0.4054    0.0000 H       1  UNL1        0.0268
     19 H           6.6315    0.3610    0.0000 H       1  UNL1        0.0268
     20 H           3.9211   -1.4902    0.0000 H       1  UNL1        0.0236
     21 H           4.3595   -2.2495    0.0000 H       1  UNL1        0.0236
     22 H           5.1188   -1.8111    0.0000 H       1  UNL1        0.0236
     23 H           5.0221    2.1936    0.0000 H       1  UNL1        0.0235
     24 H           4.4703    2.8750    0.0000 H       1  UNL1        0.0235
     25 H           3.7889    2.3232    0.0000 H       1  UNL1        0.0235
     26 H           3.6396    2.2370    0.0000 H       1  UNL1        0.0235
     27 H           2.8210    1.9228    0.0000 H       1  UNL1        0.0235
     28 H           3.1352    1.1042    0.0000 H       1  UNL1        0.0235
     29 H           2.9883   -2.3767    0.0000 H       1  UNL1        0.0257
     30 H           3.7152   -2.8670    0.0000 H       1  UNL1        0.0257
     31 H           4.2055   -2.1400    0.0000 H       1  UNL1        0.0257
     32 H           2.0000   -1.4422    0.0000 H       1  UNL1        0.2102
@<TRIPOS>BOND
     1     1     5    1
     2     1    32    1
     3     2     3    1
     4     2     5    1
     5     2     7    1
     6     2     9    1
     7     3     4    1
     8     3    10    1
     9     3    11    1
    10     4     6    1
    11     4     8    1
    12     4    13    1
    13     5     6    1
    14     5    12    1
    15     6    14    1
    16     6    15    1
    17     7     8    1
    18     7    16    1
    19     7    17    1
    20     8    18    1
    21     8    19    1
    22     9    20    1
    23     9    21    1
    24     9    22    1
    25    10    23    1
    26    10    24    1
    27    10    25    1
    28    11    26    1
    29    11    27    1
    30    11    28    1
    31    12    29    1
    32    12    30    1
    33    12    31    1
