@<TRIPOS>MOLECULE
IMPHY017616
 37 37 0 0 0
SMALL
GASTEIGER

@<TRIPOS>ATOM
      1 O           4.5981    0.6900    0.0000 O.3     1  UNL1       -0.4643
      2 O           2.8660    0.6900    0.0000 O.2     1  UNL1       -0.2508
      3 C           2.8660   -1.3100    0.0000 C.3     1  UNL1       -0.0176
      4 C           3.7320   -0.8100    0.0000 C.3     1  UNL1        0.0489
      5 C           2.8660   -2.3100    0.0000 C.ar    1  UNL1       -0.0468
      6 C           5.4641    2.1900    0.0000 C.3     1  UNL1       -0.0003
      7 C           4.5981    1.6900    0.0000 C.3     1  UNL1        0.0959
      8 C           3.7320    0.1900    0.0000 C.2     1  UNL1        0.3074
      9 C           3.7320   -2.8100    0.0000 C.ar    1  UNL1       -0.0586
     10 C           2.0000   -2.8100    0.0000 C.ar    1  UNL1       -0.0586
     11 C           5.4641    3.1900    0.0000 C.2     1  UNL1       -0.0847
     12 C           6.3301    3.6900    0.0000 C.2     1  UNL1       -0.0881
     13 C           7.1962    3.1900    0.0000 C.3     1  UNL1       -0.0376
     14 C           3.7320   -3.8100    0.0000 C.ar    1  UNL1       -0.0615
     15 C           2.0000   -3.8100    0.0000 C.ar    1  UNL1       -0.0615
     16 C           2.8660   -4.3100    0.0000 C.ar    1  UNL1       -0.0617
     17 C           8.0622    3.6900    0.0000 C.3     1  UNL1       -0.0618
     18 H           2.6540   -0.7274    0.0000 H       1  UNL1        0.0318
     19 H           2.2554   -1.4177    0.0000 H       1  UNL1        0.0318
     20 H           3.9441   -1.3926    0.0000 H       1  UNL1        0.0381
     21 H           4.3426   -0.7023    0.0000 H       1  UNL1        0.0381
     22 H           5.6762    1.6074    0.0000 H       1  UNL1        0.0340
     23 H           6.0747    2.2977    0.0000 H       1  UNL1        0.0340
     24 H           4.3860    2.2726    0.0000 H       1  UNL1        0.0700
     25 H           3.9875    1.5823    0.0000 H       1  UNL1        0.0700
     26 H           4.2690   -2.5000    0.0000 H       1  UNL1        0.0620
     27 H           1.4631   -2.5000    0.0000 H       1  UNL1        0.0620
     28 H           4.9272    3.5000    0.0000 H       1  UNL1        0.0570
     29 H           6.3301    4.3100    0.0000 H       1  UNL1        0.0569
     30 H           6.7976    2.7151    0.0000 H       1  UNL1        0.0305
     31 H           7.5947    2.7151    0.0000 H       1  UNL1        0.0305
     32 H           4.2690   -4.1200    0.0000 H       1  UNL1        0.0618
     33 H           1.4631   -4.1200    0.0000 H       1  UNL1        0.0618
     34 H           2.8660   -4.9300    0.0000 H       1  UNL1        0.0618
     35 H           8.3722    3.1531    0.0000 H       1  UNL1        0.0233
     36 H           8.5991    4.0000    0.0000 H       1  UNL1        0.0233
     37 H           7.7522    4.2269    0.0000 H       1  UNL1        0.0233
@<TRIPOS>BOND
     1     1     7    1
     2     1     8    1
     3     2     8    2
     4     3     4    1
     5     3     5    1
     6     3    18    1
     7     3    19    1
     8     4     8    1
     9     4    20    1
    10     4    21    1
    11     5     9   ar
    12     5    10   ar
    13     6     7    1
    14     6    11    1
    15     6    22    1
    16     6    23    1
    17     7    24    1
    18     7    25    1
    19     9    14   ar
    20     9    26    1
    21    10    15   ar
    22    10    27    1
    23    11    12    2
    24    11    28    1
    25    12    13    1
    26    12    29    1
    27    13    17    1
    28    13    30    1
    29    13    31    1
    30    14    16   ar
    31    14    32    1
    32    15    16   ar
    33    15    33    1
    34    16    34    1
    35    17    35    1
    36    17    36    1
    37    17    37    1
