@<TRIPOS>MOLECULE
IMPHY004942
 102 102 0 0 0
SMALL
GASTEIGER

@<TRIPOS>ATOM
      1 O           6.3301   -6.5950    0.0000 O.3     1  UNL1       -0.4616
      2 O           4.5981   -6.5950    0.0000 O.2     1  UNL1       -0.2456
      3 O           2.8660  -11.5950    0.0000 O.3     1  UNL1       -0.4914
      4 O           4.5981  -12.5950    0.0000 O.3     1  UNL1       -0.5033
      5 C          11.5263    3.4050    0.0000 C.3     1  UNL1       -0.0531
      6 C          12.3923    3.9050    0.0000 C.3     1  UNL1       -0.0531
      7 C          11.5263    2.4050    0.0000 C.3     1  UNL1       -0.0531
      8 C          12.3923    4.9050    0.0000 C.3     1  UNL1       -0.0531
      9 C          10.6603    1.9050    0.0000 C.3     1  UNL1       -0.0531
     10 C          13.2583    5.4050    0.0000 C.3     1  UNL1       -0.0531
     11 C          10.6603    0.9050    0.0000 C.3     1  UNL1       -0.0531
     12 C          13.2583    6.4050    0.0000 C.3     1  UNL1       -0.0531
     13 C           9.7942    0.4050    0.0000 C.3     1  UNL1       -0.0531
     14 C          14.1244    6.9050    0.0000 C.3     1  UNL1       -0.0531
     15 C           9.7942   -0.5950    0.0000 C.3     1  UNL1       -0.0531
     16 C          14.1244    7.9050    0.0000 C.3     1  UNL1       -0.0531
     17 C           8.9282   -1.0950    0.0000 C.3     1  UNL1       -0.0531
     18 C          14.9904    8.4050    0.0000 C.3     1  UNL1       -0.0531
     19 C           8.9282   -2.0950    0.0000 C.3     1  UNL1       -0.0531
     20 C          14.9904    9.4050    0.0000 C.3     1  UNL1       -0.0531
     21 C           8.0622   -2.5950    0.0000 C.3     1  UNL1       -0.0531
     22 C          15.8564    9.9050    0.0000 C.3     1  UNL1       -0.0531
     23 C           8.0622   -3.5950    0.0000 C.3     1  UNL1       -0.0530
     24 C          15.8564   10.9050    0.0000 C.3     1  UNL1       -0.0531
     25 C           7.1962   -4.0950    0.0000 C.3     1  UNL1       -0.0500
     26 C          16.7224   11.4050    0.0000 C.3     1  UNL1       -0.0533
     27 C           7.1962   -5.0950    0.0000 C.3     1  UNL1       -0.0185
     28 C          16.7224   12.4050    0.0000 C.3     1  UNL1       -0.0559
     29 C           6.3301   -5.5950    0.0000 C.3     1  UNL1        0.0928
     30 C          17.5885   12.9050    0.0000 C.3     1  UNL1       -0.0653
     31 C           5.4641   -7.0950    0.0000 C.2     1  UNL1        0.3319
     32 C           5.4641   -8.0950    0.0000 C.2     1  UNL1        0.0231
     33 C           4.5981   -8.5950    0.0000 C.2     1  UNL1       -0.0477
     34 C           4.5981   -9.5950    0.0000 C.ar    1  UNL1       -0.0211
     35 C           3.7320  -10.0950    0.0000 C.ar    1  UNL1       -0.0092
     36 C           5.4641  -10.0950    0.0000 C.ar    1  UNL1       -0.0509
     37 C           3.7320  -11.0950    0.0000 C.ar    1  UNL1        0.1618
     38 C           5.4641  -11.0950    0.0000 C.ar    1  UNL1       -0.0160
     39 C           4.5981  -11.5950    0.0000 C.ar    1  UNL1        0.1585
     40 C           2.0000  -11.0950    0.0000 C.3     1  UNL1        0.0790
     41 H          11.3142    3.9876    0.0000 H       1  UNL1        0.0265
     42 H          10.9157    3.2973    0.0000 H       1  UNL1        0.0265
     43 H          12.6044    3.3224    0.0000 H       1  UNL1        0.0265
     44 H          13.0029    4.0127    0.0000 H       1  UNL1        0.0265
     45 H          11.7383    1.8224    0.0000 H       1  UNL1        0.0265
     46 H          12.1369    2.5127    0.0000 H       1  UNL1        0.0265
     47 H          12.1803    5.4876    0.0000 H       1  UNL1        0.0265
     48 H          11.7817    4.7973    0.0000 H       1  UNL1        0.0265
     49 H          10.4482    2.4876    0.0000 H       1  UNL1        0.0265
     50 H          10.0497    1.7973    0.0000 H       1  UNL1        0.0265
     51 H          13.4704    4.8224    0.0000 H       1  UNL1        0.0265
     52 H          13.8689    5.5127    0.0000 H       1  UNL1        0.0265
     53 H          10.8723    0.3224    0.0000 H       1  UNL1        0.0265
     54 H          11.2708    1.0127    0.0000 H       1  UNL1        0.0265
     55 H          13.0463    6.9876    0.0000 H       1  UNL1        0.0265
     56 H          12.6477    6.2973    0.0000 H       1  UNL1        0.0265
     57 H           9.5822    0.9876    0.0000 H       1  UNL1        0.0265
     58 H           9.1836    0.2973    0.0000 H       1  UNL1        0.0265
     59 H          14.3364    6.3224    0.0000 H       1  UNL1        0.0265
     60 H          14.7349    7.0127    0.0000 H       1  UNL1        0.0265
     61 H          10.0063   -1.1776    0.0000 H       1  UNL1        0.0265
     62 H          10.4048   -0.4873    0.0000 H       1  UNL1        0.0265
     63 H          13.9123    8.4876    0.0000 H       1  UNL1        0.0265
     64 H          13.5138    7.7973    0.0000 H       1  UNL1        0.0265
     65 H           8.7162   -0.5124    0.0000 H       1  UNL1        0.0265
     66 H           8.3176   -1.2027    0.0000 H       1  UNL1        0.0265
     67 H          15.2024    7.8224    0.0000 H       1  UNL1        0.0265
     68 H          15.6010    8.5127    0.0000 H       1  UNL1        0.0265
     69 H           9.1403   -2.6776    0.0000 H       1  UNL1        0.0265
     70 H           9.5388   -1.9873    0.0000 H       1  UNL1        0.0265
     71 H          14.7783    9.9876    0.0000 H       1  UNL1        0.0265
     72 H          14.3798    9.2973    0.0000 H       1  UNL1        0.0265
     73 H           7.8501   -2.0124    0.0000 H       1  UNL1        0.0265
     74 H           7.4516   -2.7027    0.0000 H       1  UNL1        0.0265
     75 H          16.0685    9.3224    0.0000 H       1  UNL1        0.0265
     76 H          16.4670   10.0127    0.0000 H       1  UNL1        0.0265
     77 H           8.2742   -4.1776    0.0000 H       1  UNL1        0.0265
     78 H           8.6728   -3.4873    0.0000 H       1  UNL1        0.0265
     79 H          15.6444   11.4876    0.0000 H       1  UNL1        0.0265
     80 H          15.2458   10.7973    0.0000 H       1  UNL1        0.0265
     81 H           6.9841   -3.5124    0.0000 H       1  UNL1        0.0266
     82 H           6.5856   -4.2027    0.0000 H       1  UNL1        0.0266
     83 H          16.9345   10.8224    0.0000 H       1  UNL1        0.0265
     84 H          17.3330   11.5127    0.0000 H       1  UNL1        0.0265
     85 H           7.4082   -5.6776    0.0000 H       1  UNL1        0.0298
     86 H           7.8067   -4.9873    0.0000 H       1  UNL1        0.0298
     87 H          16.5104   12.9876    0.0000 H       1  UNL1        0.0263
     88 H          16.1119   12.2973    0.0000 H       1  UNL1        0.0263
     89 H           6.1181   -5.0124    0.0000 H       1  UNL1        0.0697
     90 H           5.7196   -5.7027    0.0000 H       1  UNL1        0.0697
     91 H          17.8985   12.3681    0.0000 H       1  UNL1        0.0230
     92 H          18.1254   13.2150    0.0000 H       1  UNL1        0.0230
     93 H          17.2785   13.4419    0.0000 H       1  UNL1        0.0230
     94 H           6.0010   -8.4050    0.0000 H       1  UNL1        0.0689
     95 H           4.0611   -8.2850    0.0000 H       1  UNL1        0.0626
     96 H           3.1951   -9.7850    0.0000 H       1  UNL1        0.0661
     97 H           6.0010   -9.7850    0.0000 H       1  UNL1        0.0625
     98 H           6.0010  -11.4050    0.0000 H       1  UNL1        0.0655
     99 H           5.1350  -12.9050    0.0000 H       1  UNL1        0.2923
    100 H           2.3100  -10.5581    0.0000 H       1  UNL1        0.0660
    101 H           1.4631  -10.7850    0.0000 H       1  UNL1        0.0660
    102 H           1.6900  -11.6319    0.0000 H       1  UNL1        0.0660
@<TRIPOS>BOND
     1     1    29    1
     2     1    31    1
     3     2    31    2
     4     3    37    1
     5     3    40    1
     6     4    39    1
     7     4    99    1
     8     5     6    1
     9     5     7    1
    10     5    41    1
    11     5    42    1
    12     6     8    1
    13     6    43    1
    14     6    44    1
    15     7     9    1
    16     7    45    1
    17     7    46    1
    18     8    10    1
    19     8    47    1
    20     8    48    1
    21     9    11    1
    22     9    49    1
    23     9    50    1
    24    10    12    1
    25    10    51    1
    26    10    52    1
    27    11    13    1
    28    11    53    1
    29    11    54    1
    30    12    14    1
    31    12    55    1
    32    12    56    1
    33    13    15    1
    34    13    57    1
    35    13    58    1
    36    14    16    1
    37    14    59    1
    38    14    60    1
    39    15    17    1
    40    15    61    1
    41    15    62    1
    42    16    18    1
    43    16    63    1
    44    16    64    1
    45    17    19    1
    46    17    65    1
    47    17    66    1
    48    18    20    1
    49    18    67    1
    50    18    68    1
    51    19    21    1
    52    19    69    1
    53    19    70    1
    54    20    22    1
    55    20    71    1
    56    20    72    1
    57    21    23    1
    58    21    73    1
    59    21    74    1
    60    22    24    1
    61    22    75    1
    62    22    76    1
    63    23    25    1
    64    23    77    1
    65    23    78    1
    66    24    26    1
    67    24    79    1
    68    24    80    1
    69    25    27    1
    70    25    81    1
    71    25    82    1
    72    26    28    1
    73    26    83    1
    74    26    84    1
    75    27    29    1
    76    27    85    1
    77    27    86    1
    78    28    30    1
    79    28    87    1
    80    28    88    1
    81    29    89    1
    82    29    90    1
    83    30    91    1
    84    30    92    1
    85    30    93    1
    86    31    32    1
    87    32    33    2
    88    32    94    1
    89    33    34    1
    90    33    95    1
    91    34    35   ar
    92    34    36   ar
    93    35    37   ar
    94    35    96    1
    95    36    38   ar
    96    36    97    1
    97    37    39   ar
    98    38    39   ar
    99    38    98    1
   100    40   100    1
   101    40   101    1
   102    40   102    1
