@<TRIPOS>MOLECULE
IMPHY003252
 50 52 0 0 0
SMALL
GASTEIGER

@<TRIPOS>ATOM
      1 O           5.1350    1.0000    0.0000 O.3     1  UNL1       -0.3305
      2 O           6.8671   -1.0000    0.0000 O.3     1  UNL1       -0.4488
      3 O           6.8671    1.0000    0.0000 O.3     1  UNL1       -0.4593
      4 O           5.1350   -2.0000    0.0000 O.3     1  UNL1       -0.3852
      5 O           3.4030   -1.0000    0.0000 O.3     1  UNL1       -0.3864
      6 O           2.5369    0.5000    0.0000 O.3     1  UNL1       -0.3924
      7 O           6.0010   -2.5000    0.0000 O.2     1  UNL1       -0.2449
      8 O           9.4651    2.5000    0.0000 O.3     1  UNL1       -0.3903
      9 C           5.1350   -1.0000    0.0000 C.3     1  UNL1        0.1263
     10 C           4.2690   -0.5000    0.0000 C.3     1  UNL1        0.1130
     11 C           6.0010   -0.5000    0.0000 C.3     1  UNL1        0.1932
     12 C           4.2690    0.5000    0.0000 C.3     1  UNL1        0.1141
     13 C           6.0010    0.5000    0.0000 C.3     1  UNL1        0.2420
     14 C           3.4030    1.0000    0.0000 C.3     1  UNL1        0.0731
     15 C           6.8671    2.0000    0.0000 C.ar    1  UNL1        0.1294
     16 C           6.8671   -2.0000    0.0000 C.2     1  UNL1        0.3397
     17 C           7.7331    2.5000    0.0000 C.ar    1  UNL1        0.0196
     18 C           6.0010    2.5000    0.0000 C.ar    1  UNL1       -0.0195
     19 C           7.7331   -2.5000    0.0000 C.ar    1  UNL1        0.0590
     20 C           7.7331    3.5000    0.0000 C.ar    1  UNL1       -0.0529
     21 C           8.5991    2.0000    0.0000 C.3     1  UNL1        0.0727
     22 C           6.0010    3.5000    0.0000 C.ar    1  UNL1       -0.0583
     23 C           6.8671    4.0000    0.0000 C.ar    1  UNL1       -0.0612
     24 C           7.7331   -3.5000    0.0000 C.ar    1  UNL1       -0.0478
     25 C           8.5991   -2.0000    0.0000 C.ar    1  UNL1       -0.0478
     26 C           8.5991   -4.0000    0.0000 C.ar    1  UNL1       -0.0610
     27 C           9.4651   -2.5000    0.0000 C.ar    1  UNL1       -0.0610
     28 C           9.4651   -3.5000    0.0000 C.ar    1  UNL1       -0.0617
     29 H           5.6720   -1.3100    0.0000 H       1  UNL1        0.0659
     30 H           4.2690   -1.1200    0.0000 H       1  UNL1        0.0647
     31 H           6.5380   -0.1900    0.0000 H       1  UNL1        0.0825
     32 H           4.2690    1.1200    0.0000 H       1  UNL1        0.0647
     33 H           6.0010    1.1200    0.0000 H       1  UNL1        0.1096
     34 H           3.8015    1.4750    0.0000 H       1  UNL1        0.0584
     35 H           3.0044    1.4750    0.0000 H       1  UNL1        0.0584
     36 H           4.5981   -2.3100    0.0000 H       1  UNL1        0.2101
     37 H           3.4030   -1.6200    0.0000 H       1  UNL1        0.2100
     38 H           2.0000    0.8100    0.0000 H       1  UNL1        0.2095
     39 H           5.4641    2.1900    0.0000 H       1  UNL1        0.0654
     40 H           8.2700    3.8100    0.0000 H       1  UNL1        0.0622
     41 H           8.2006    1.5250    0.0000 H       1  UNL1        0.0608
     42 H           8.9976    1.5250    0.0000 H       1  UNL1        0.0608
     43 H           5.4641    3.8100    0.0000 H       1  UNL1        0.0619
     44 H           6.8671    4.6200    0.0000 H       1  UNL1        0.0618
     45 H           7.1962   -3.8100    0.0000 H       1  UNL1        0.0626
     46 H           8.5991   -1.3800    0.0000 H       1  UNL1        0.0626
     47 H           8.5991   -4.6200    0.0000 H       1  UNL1        0.0618
     48 H          10.0021   -2.1900    0.0000 H       1  UNL1        0.0618
     49 H          10.0021   -3.8100    0.0000 H       1  UNL1        0.0618
     50 H          10.0021    2.1900    0.0000 H       1  UNL1        0.2098
@<TRIPOS>BOND
     1     1    12    1
     2     1    13    1
     3    11     2    1
     4     2    16    1
     5    13     3    1
     6     3    15    1
     7     9     4    1
     8     4    36    1
     9    10     5    1
    10     5    37    1
    11     6    14    1
    12     6    38    1
    13     7    16    2
    14     8    21    1
    15     8    50    1
    16     9    10    1
    17     9    11    1
    18     9    29    1
    19    10    12    1
    20    10    30    1
    21    11    13    1
    22    11    31    1
    23    12    14    1
    24    12    32    1
    25    13    33    1
    26    14    34    1
    27    14    35    1
    28    15    17   ar
    29    15    18   ar
    30    16    19    1
    31    17    20   ar
    32    17    21    1
    33    18    22   ar
    34    18    39    1
    35    19    24   ar
    36    19    25   ar
    37    20    23   ar
    38    20    40    1
    39    21    41    1
    40    21    42    1
    41    22    23   ar
    42    22    43    1
    43    23    44    1
    44    24    26   ar
    45    24    45    1
    46    25    27   ar
    47    25    46    1
    48    26    28   ar
    49    26    47    1
    50    27    28   ar
    51    27    48    1
    52    28    49    1
