@<TRIPOS>MOLECULE
IMPHY015741
 57 63 0 0 0
SMALL
GASTEIGER

@<TRIPOS>ATOM
      1 O           9.1259   -1.4112    0.0000 O.3     1  UNL1       -0.5053
      2 O           2.9438    2.1581    0.0000 O.3     1  UNL1       -0.5053
      3 O           8.1908    3.1308    0.0000 O.3     1  UNL1       -0.5060
      4 O           7.3449    3.6192    0.0000 O.3     1  UNL1       -0.5060
      5 O           9.9708    0.1833    0.0000 O.3     1  UNL1       -0.5059
      6 O           3.9022    3.6870    0.0000 O.3     1  UNL1       -0.5059
      7 O           8.2322   -3.0169    0.0000 O.2     1  UNL1       -0.2871
      8 O           2.0000    0.5812    0.0000 O.2     1  UNL1       -0.2871
      9 O           4.6059   -4.0029    0.0000 O.3     1  UNL1       -0.3904
     10 C           6.4739    0.1339    0.0000 C.ar    1  UNL1       -0.0001
     11 C           5.6079    0.6339    0.0000 C.ar    1  UNL1       -0.0001
     12 C           7.3399    0.6339    0.0000 C.ar    1  UNL1        0.0088
     13 C           5.6079    1.6339    0.0000 C.ar    1  UNL1        0.0088
     14 C           7.3399    1.6339    0.0000 C.ar    1  UNL1        0.0363
     15 C           6.4739    2.1339    0.0000 C.ar    1  UNL1        0.0363
     16 C           6.4578   -0.9076    0.0000 C.ar    1  UNL1       -0.0020
     17 C           4.7140    0.0993    0.0000 C.ar    1  UNL1       -0.0021
     18 C           8.2499    0.1271    0.0000 C.ar    1  UNL1        0.0670
     19 C           4.7140    2.1686    0.0000 C.ar    1  UNL1        0.0670
     20 C           7.3559   -1.4353    0.0000 C.ar    1  UNL1        0.0715
     21 C           3.8079    0.6131    0.0000 C.ar    1  UNL1        0.0715
     22 C           8.2580   -0.9145    0.0000 C.ar    1  UNL1        0.1394
     23 C           3.8079    1.6548    0.0000 C.ar    1  UNL1        0.1394
     24 C           8.1982    2.1309    0.0000 C.ar    1  UNL1        0.1288
     25 C           6.4752    3.1256    0.0000 C.ar    1  UNL1        0.1288
     26 C           9.0893    0.6553    0.0000 C.ar    1  UNL1        0.1316
     27 C           4.7518    3.1596    0.0000 C.ar    1  UNL1        0.1316
     28 C           5.5059   -1.4282    0.0000 C.2     1  UNL1       -0.0477
     29 C           4.7390   -0.9854    0.0000 C.2     1  UNL1       -0.0502
     30 C           9.0636    1.6467    0.0000 C.ar    1  UNL1        0.0227
     31 C           5.6231    3.6331    0.0000 C.ar    1  UNL1        0.0227
     32 C           7.3642   -2.5203    0.0000 C.2     1  UNL1        0.1905
     33 C           2.8641    0.0779    0.0000 C.2     1  UNL1        0.1904
     34 C           5.4892   -2.5130    0.0000 C.2     1  UNL1       -0.0180
     35 C           3.8079   -1.5423    0.0000 C.2     1  UNL1       -0.0462
     36 C           6.4246   -3.0628    0.0000 C.2     1  UNL1       -0.0088
     37 C           2.8641   -1.0071    0.0000 C.2     1  UNL1       -0.0113
     38 C           4.6174   -3.0030    0.0000 C.3     1  UNL1        0.0694
     39 C           3.8194   -2.5423    0.0000 C.3     1  UNL1       -0.0396
     40 H           4.9751   -1.1079    0.0000 H       1  UNL1        0.0627
     41 H           5.2819   -1.2850    0.0000 H       1  UNL1        0.0626
     42 H           9.5944    1.9672    0.0000 H       1  UNL1        0.0691
     43 H           5.6353    4.2530    0.0000 H       1  UNL1        0.0691
     44 H           6.4222   -3.6828    0.0000 H       1  UNL1        0.0659
     45 H           2.3284   -1.3192    0.0000 H       1  UNL1        0.0659
     46 H           9.6616   -1.0991    0.0000 H       1  UNL1        0.2922
     47 H           2.9462    2.7781    0.0000 H       1  UNL1        0.2922
     48 H           4.4121   -2.4180    0.0000 H       1  UNL1        0.0607
     49 H           4.0057   -3.1036    0.0000 H       1  UNL1        0.0607
     50 H           8.7254    3.4448    0.0000 H       1  UNL1        0.2922
     51 H           7.3494    4.2392    0.0000 H       1  UNL1        0.2922
     52 H           3.1995   -2.5494    0.0000 H       1  UNL1        0.0278
     53 H           3.8266   -3.1622    0.0000 H       1  UNL1        0.0278
     54 H           4.4394   -2.5351    0.0000 H       1  UNL1        0.0278
     55 H          10.4976    0.5103    0.0000 H       1  UNL1        0.2922
     56 H           3.9220    4.3067    0.0000 H       1  UNL1        0.2922
     57 H           4.0654   -4.3067    0.0000 H       1  UNL1        0.2098
@<TRIPOS>BOND
     1     1    22    1
     2     1    46    1
     3     2    23    1
     4     2    47    1
     5     3    24    1
     6     3    50    1
     7     4    25    1
     8     4    51    1
     9     5    26    1
    10     5    55    1
    11     6    27    1
    12     6    56    1
    13     7    32    2
    14     8    33    2
    15     9    38    1
    16     9    57    1
    17    10    11   ar
    18    10    12   ar
    19    10    16   ar
    20    11    13   ar
    21    11    17   ar
    22    12    14   ar
    23    12    18   ar
    24    13    15   ar
    25    13    19   ar
    26    14    15   ar
    27    14    24   ar
    28    15    25   ar
    29    16    20   ar
    30    16    28    2
    31    17    21   ar
    32    17    29    2
    33    18    22   ar
    34    18    26   ar
    35    19    23   ar
    36    19    27   ar
    37    20    22   ar
    38    20    32    1
    39    21    23   ar
    40    21    33    1
    41    24    30   ar
    42    25    31   ar
    43    26    30   ar
    44    27    31   ar
    45    28    34    1
    46    28    40    1
    47    29    35    1
    48    29    41    1
    49    30    42    1
    50    31    43    1
    51    32    36    1
    52    33    37    1
    53    34    36    2
    54    34    38    1
    55    35    37    2
    56    35    39    1
    57    36    44    1
    58    37    45    1
    59    38    48    1
    60    38    49    1
    61    39    52    1
    62    39    53    1
    63    39    54    1
