@<TRIPOS>MOLECULE
IMPHY017956
 12 12 0 0 0
SMALL
GASTEIGER

@<TRIPOS>ATOM
      1 C           4.3575   -0.9070    0.0000 C.3     1  UNL1        0.1669
      2 C           3.4505   -1.8141    0.0000 C.2     1  UNL1        0.0103
      3 C           2.5434   -0.9070    0.0000 C.3     1  UNL1        0.1669
      4 O           3.4505    0.0000    0.0000 O.3     1  UNL1       -0.3448
      5 C           3.4505   -3.1793    0.0000 C.2     1  UNL1       -0.0295
      6 C           2.3564   -3.8993    0.0000 C.3     1  UNL1        0.0299
      7 C           2.3564   -5.2645    0.0000 C.3     1  UNL1        0.0268
      8 C           1.1782   -5.9004    0.0000 C.2     1  UNL1       -0.0403
      9 C           0.0000   -5.2645    0.0000 C.3     1  UNL1        0.0265
     10 C           1.1782   -7.2656    0.0000 C.2     1  UNL1        0.0369
     11 C           0.0000   -7.9856    0.0000 C.2     1  UNL1        0.2336
     12 O           0.0000   -9.3508    0.0000 O.2     1  UNL1       -0.2832
@<TRIPOS>BOND
     1     1     2    1
     2     1     4    1
     3     2     3    1
     4     2     5    2
     5     3     4    1
     6     5     6    1
     7     6     7    1
     8     7     8    1
     9     8     9    1
    10     8    10    2
    11    10    11    1
    12    11    12    2
