@<TRIPOS>MOLECULE
IMPHY009066
 66 69 0 0 0
SMALL
GASTEIGER

@<TRIPOS>ATOM
      1 O           5.1350   -1.3420    0.0000 O.3     1  UNL1       -0.3313
      2 O           6.8671   -1.3420    0.0000 O.3     1  UNL1       -0.4603
      3 O           5.1350   -4.3420    0.0000 O.3     1  UNL1       -0.3864
      4 O           3.4030   -3.3420    0.0000 O.3     1  UNL1       -0.3865
      5 O           6.8671   -3.3420    0.0000 O.3     1  UNL1       -0.3829
      6 O           8.6504    1.6722    0.0000 O.3     1  UNL1       -0.4811
      7 O          10.3592   -0.3477    0.0000 O.3     1  UNL1       -0.3875
      8 O           2.5369   -1.8420    0.0000 O.3     1  UNL1       -0.3924
      9 O           5.1208    1.7372    0.0000 O.3     1  UNL1       -0.4949
     10 O          11.2773    4.1420    0.0000 O.3     1  UNL1       -0.4913
     11 O          12.9745    1.1222    0.0000 O.3     1  UNL1       -0.4913
     12 O          12.9976    3.1220    0.0000 O.3     1  UNL1       -0.5009
     13 C           5.1350   -3.3420    0.0000 C.3     1  UNL1        0.1152
     14 C           4.2690   -2.8420    0.0000 C.3     1  UNL1        0.1120
     15 C           6.0010   -2.8420    0.0000 C.3     1  UNL1        0.1454
     16 C           4.2690   -1.8420    0.0000 C.3     1  UNL1        0.1140
     17 C           6.0010   -1.8420    0.0000 C.3     1  UNL1        0.2308
     18 C           9.4991    0.1623    0.0000 C.3     1  UNL1        0.1004
     19 C           8.6273   -0.3277    0.0000 C.3     1  UNL1        0.0092
     20 C           9.5106    1.1622    0.0000 C.3     1  UNL1        0.1514
     21 C           7.7671    0.1823    0.0000 C.ar    1  UNL1        0.0388
     22 C           3.4030   -1.3420    0.0000 C.3     1  UNL1        0.0731
     23 C           6.8671   -0.3420    0.0000 C.ar    1  UNL1        0.1342
     24 C           7.7787    1.1822    0.0000 C.ar    1  UNL1        0.1317
     25 C          10.3824    1.6522    0.0000 C.ar    1  UNL1        0.0023
     26 C           5.9670    0.1823    0.0000 C.ar    1  UNL1        0.0224
     27 C           6.8910    1.7272    0.0000 C.ar    1  UNL1        0.0223
     28 C           5.9790    1.2239    0.0000 C.ar    1  UNL1        0.1271
     29 C          11.2426    1.1422    0.0000 C.ar    1  UNL1       -0.0093
     30 C          10.3939    2.6521    0.0000 C.ar    1  UNL1       -0.0093
     31 C          11.2657    3.1421    0.0000 C.ar    1  UNL1        0.1653
     32 C          12.1143    1.6322    0.0000 C.ar    1  UNL1        0.1653
     33 C          12.1259    2.6321    0.0000 C.ar    1  UNL1        0.2010
     34 C           5.1363    2.7370    0.0000 C.3     1  UNL1        0.0788
     35 C          10.4171    4.6520    0.0000 C.3     1  UNL1        0.0790
     36 C          12.9629    0.1222    0.0000 C.3     1  UNL1        0.0790
     37 H           5.6720   -3.6520    0.0000 H       1  UNL1        0.0648
     38 H           4.2690   -3.4620    0.0000 H       1  UNL1        0.0647
     39 H           6.5380   -2.5320    0.0000 H       1  UNL1        0.0683
     40 H           4.2690   -1.2220    0.0000 H       1  UNL1        0.0647
     41 H           6.0010   -1.2220    0.0000 H       1  UNL1        0.1084
     42 H          10.0395    0.4661    0.0000 H       1  UNL1        0.0637
     43 H           8.2233   -0.7980    0.0000 H       1  UNL1        0.0342
     44 H           9.0203   -0.8072    0.0000 H       1  UNL1        0.0342
     45 H           9.5178    1.7822    0.0000 H       1  UNL1        0.0811
     46 H           3.8015   -0.8670    0.0000 H       1  UNL1        0.0584
     47 H           3.0044   -0.8670    0.0000 H       1  UNL1        0.0584
     48 H           4.5981   -4.6520    0.0000 H       1  UNL1        0.2100
     49 H           3.4030   -3.9620    0.0000 H       1  UNL1        0.2100
     50 H           6.8671   -3.9620    0.0000 H       1  UNL1        0.2102
     51 H           5.4277   -0.1235    0.0000 H       1  UNL1        0.0691
     52 H           6.9053    2.3470    0.0000 H       1  UNL1        0.0691
     53 H          10.3521   -0.9677    0.0000 H       1  UNL1        0.2100
     54 H          11.2354    0.5222    0.0000 H       1  UNL1        0.0659
     55 H           9.8606    2.9683    0.0000 H       1  UNL1        0.0659
     56 H           2.0000   -1.5320    0.0000 H       1  UNL1        0.2095
     57 H           5.7562    2.7275    0.0000 H       1  UNL1        0.0660
     58 H           5.1458    3.3570    0.0000 H       1  UNL1        0.0660
     59 H           4.5163    2.7466    0.0000 H       1  UNL1        0.0660
     60 H          13.0048    3.7420    0.0000 H       1  UNL1        0.2924
     61 H          10.7333    5.1853    0.0000 H       1  UNL1        0.0660
     62 H           9.8837    4.9682    0.0000 H       1  UNL1        0.0660
     63 H          10.1009    4.1187    0.0000 H       1  UNL1        0.0660
     64 H          12.3430    0.1294    0.0000 H       1  UNL1        0.0660
     65 H          12.9558   -0.4977    0.0000 H       1  UNL1        0.0660
     66 H          13.5829    0.1151    0.0000 H       1  UNL1        0.0660
@<TRIPOS>BOND
     1     1    16    1
     2     1    17    1
     3    17     2    1
     4     2    23    1
     5    13     3    1
     6     3    48    1
     7    14     4    1
     8     4    49    1
     9     5    15    1
    10     5    50    1
    11     6    20    1
    12     6    24    1
    13    18     7    1
    14     7    53    1
    15     8    22    1
    16     8    56    1
    17     9    28    1
    18     9    34    1
    19    10    31    1
    20    10    35    1
    21    11    32    1
    22    11    36    1
    23    12    33    1
    24    12    60    1
    25    13    14    1
    26    13    15    1
    27    13    37    1
    28    14    16    1
    29    14    38    1
    30    15    17    1
    31    15    39    1
    32    16    22    1
    33    16    40    1
    34    17    41    1
    35    18    19    1
    36    18    20    1
    37    18    42    1
    38    19    21    1
    39    19    43    1
    40    19    44    1
    41    20    25    1
    42    20    45    1
    43    21    23   ar
    44    21    24   ar
    45    22    46    1
    46    22    47    1
    47    23    26   ar
    48    24    27   ar
    49    25    29   ar
    50    25    30   ar
    51    26    28   ar
    52    26    51    1
    53    27    28   ar
    54    27    52    1
    55    29    32   ar
    56    29    54    1
    57    30    31   ar
    58    30    55    1
    59    31    33   ar
    60    32    33   ar
    61    34    57    1
    62    34    58    1
    63    34    59    1
    64    35    61    1
    65    35    62    1
    66    35    63    1
    67    36    64    1
    68    36    65    1
    69    36    66    1
