@<TRIPOS>MOLECULE
IMPHY015566
 32 32 0 0 0
SMALL
GASTEIGER

@<TRIPOS>ATOM
      1 O           5.1350   -0.0600    0.0000 O.3     1  UNL1       -0.4608
      2 O           2.5369   -1.5600    0.0000 O.3     1  UNL1       -0.5059
      3 O           3.4030   -0.0600    0.0000 O.2     1  UNL1       -0.2448
      4 C           6.0010    1.4400    0.0000 C.3     1  UNL1       -0.0003
      5 C           5.1350    0.9400    0.0000 C.3     1  UNL1        0.0962
      6 C           6.0010    2.4400    0.0000 C.2     1  UNL1       -0.0847
      7 C           7.7331    2.4400    0.0000 C.3     1  UNL1       -0.0376
      8 C           6.8671    2.9400    0.0000 C.2     1  UNL1       -0.0881
      9 C           4.2690   -1.5600    0.0000 C.ar    1  UNL1        0.1003
     10 C           4.2690   -0.5600    0.0000 C.2     1  UNL1        0.3427
     11 C           3.4030   -2.0600    0.0000 C.ar    1  UNL1        0.1308
     12 C           5.1350   -2.0600    0.0000 C.ar    1  UNL1       -0.0442
     13 C           8.5991    2.9400    0.0000 C.3     1  UNL1       -0.0618
     14 C           3.4030   -3.0600    0.0000 C.ar    1  UNL1       -0.0194
     15 C           5.1350   -3.0600    0.0000 C.ar    1  UNL1       -0.0608
     16 C           4.2690   -3.5600    0.0000 C.ar    1  UNL1       -0.0583
     17 H           6.2131    0.8574    0.0000 H       1  UNL1        0.0340
     18 H           6.6116    1.5477    0.0000 H       1  UNL1        0.0340
     19 H           4.9230    1.5226    0.0000 H       1  UNL1        0.0700
     20 H           4.5244    0.8323    0.0000 H       1  UNL1        0.0700
     21 H           5.4641    2.7500    0.0000 H       1  UNL1        0.0570
     22 H           7.3346    1.9650    0.0000 H       1  UNL1        0.0305
     23 H           8.1316    1.9650    0.0000 H       1  UNL1        0.0305
     24 H           6.8671    3.5600    0.0000 H       1  UNL1        0.0569
     25 H           5.6720   -1.7500    0.0000 H       1  UNL1        0.0627
     26 H           8.9091    2.4031    0.0000 H       1  UNL1        0.0233
     27 H           9.1360    3.2500    0.0000 H       1  UNL1        0.0233
     28 H           8.2891    3.4769    0.0000 H       1  UNL1        0.0233
     29 H           2.8660   -3.3700    0.0000 H       1  UNL1        0.0654
     30 H           5.6720   -3.3700    0.0000 H       1  UNL1        0.0618
     31 H           4.2690   -4.1800    0.0000 H       1  UNL1        0.0619
     32 H           2.0000   -1.8700    0.0000 H       1  UNL1        0.2922
@<TRIPOS>BOND
     1     1     5    1
     2     1    10    1
     3     2    11    1
     4     2    32    1
     5     3    10    2
     6     4     5    1
     7     4     6    1
     8     4    17    1
     9     4    18    1
    10     5    19    1
    11     5    20    1
    12     6     8    2
    13     6    21    1
    14     7     8    1
    15     7    13    1
    16     7    22    1
    17     7    23    1
    18     8    24    1
    19     9    10    1
    20     9    11   ar
    21     9    12   ar
    22    11    14   ar
    23    12    15   ar
    24    12    25    1
    25    13    26    1
    26    13    27    1
    27    13    28    1
    28    14    16   ar
    29    14    29    1
    30    15    16   ar
    31    15    30    1
    32    16    31    1
