@<TRIPOS>MOLECULE
IMPHY008107
 62 63 0 0 0
SMALL
GASTEIGER

@<TRIPOS>ATOM
      1 O           6.9653    2.3238    0.0000 O.2     1  UNL1       -0.5097
      2 O           8.6973   -0.6762    0.0000 O.2     1  UNL1       -0.5056
      3 O          10.4294    2.3238    0.0000 O.2     1  UNL1       -0.2908
      4 O           6.2812   -1.5556    0.0000 O.3     1  UNL1       -0.5055
      5 O           5.6797    1.8559    0.0000 O.3     1  UNL1       -0.5060
      6 O          10.4294   -0.6762    0.0000 O.2     1  UNL1       -0.2918
      7 O           3.0261   -0.3708    0.0000 O.3     1  UNL1       -0.5056
      8 O           4.9544   -2.6689    0.0000 O.2     1  UNL1       -0.2918
      9 C           8.6973    2.3238    0.0000 C.3     1  UNL1        0.0853
     10 C           7.8313    1.8238    0.0000 C.2     1  UNL1        0.1141
     11 C           7.8313    0.8238    0.0000 C.2     1  UNL1        0.0375
     12 C           9.5634    1.8238    0.0000 C.2     1  UNL1        0.1828
     13 C           9.5634    0.8238    0.0000 C.2     1  UNL1        0.1024
     14 C           6.9653    0.3238    0.0000 C.3     1  UNL1        0.0112
     15 C           9.1973    3.1898    0.0000 C.3     1  UNL1       -0.0458
     16 C           8.1973    3.1898    0.0000 C.3     1  UNL1       -0.0458
     17 C           8.6973    0.3238    0.0000 C.2     1  UNL1        0.1374
     18 C           5.9805    0.1502    0.0000 C.ar    1  UNL1        0.0411
     19 C          10.4294    0.3238    0.0000 C.2     1  UNL1        0.1701
     20 C           5.6384   -0.7894    0.0000 C.ar    1  UNL1        0.1378
     21 C           5.3377    0.9162    0.0000 C.ar    1  UNL1        0.1302
     22 C          11.2954    0.8238    0.0000 C.3     1  UNL1        0.0105
     23 C           4.6537   -0.9632    0.0000 C.ar    1  UNL1        0.1008
     24 C           4.3529    0.7426    0.0000 C.ar    1  UNL1        0.0335
     25 C           4.0109   -0.1971    0.0000 C.ar    1  UNL1        0.1372
     26 C          12.1614    0.3238    0.0000 C.3     1  UNL1       -0.0489
     27 C           4.3116   -1.9028    0.0000 C.2     1  UNL1        0.1702
     28 C           3.3268   -2.0765    0.0000 C.3     1  UNL1        0.0105
     29 C           3.7101    1.5086    0.0000 C.3     1  UNL1       -0.0327
     30 C          13.0275    0.8238    0.0000 C.3     1  UNL1       -0.0649
     31 C           2.9847   -3.0161    0.0000 C.3     1  UNL1       -0.0489
     32 C           2.0000   -3.1898    0.0000 C.3     1  UNL1       -0.0649
     33 H           6.8223   -0.2795    0.0000 H       1  UNL1        0.0366
     34 H           6.7532    0.9064    0.0000 H       1  UNL1        0.0366
     35 H           8.7343    3.4998    0.0000 H       1  UNL1        0.0243
     36 H           7.8873    3.7268    0.0000 H       1  UNL1        0.0243
     37 H           7.6604    2.8798    0.0000 H       1  UNL1        0.0243
     38 H           9.7343    2.8798    0.0000 H       1  UNL1        0.0243
     39 H           9.5073    3.7268    0.0000 H       1  UNL1        0.0243
     40 H           8.6604    3.4998    0.0000 H       1  UNL1        0.0243
     41 H          11.6939    1.2988    0.0000 H       1  UNL1        0.0345
     42 H          10.8969    1.2988    0.0000 H       1  UNL1        0.0345
     43 H           6.4284    2.0138    0.0000 H       1  UNL1        0.2917
     44 H          11.7629   -0.1511    0.0000 H       1  UNL1        0.0267
     45 H          12.5600   -0.1511    0.0000 H       1  UNL1        0.0267
     46 H           9.2343   -0.9862    0.0000 H       1  UNL1        0.2922
     47 H           3.3268   -1.4565    0.0000 H       1  UNL1        0.0345
     48 H           2.7162   -1.9688    0.0000 H       1  UNL1        0.0345
     49 H           4.1851    1.9071    0.0000 H       1  UNL1        0.0280
     50 H           3.3116    1.9836    0.0000 H       1  UNL1        0.0280
     51 H           3.2352    1.1101    0.0000 H       1  UNL1        0.0280
     52 H          13.3375    0.2869    0.0000 H       1  UNL1        0.0230
     53 H          13.5644    1.1338    0.0000 H       1  UNL1        0.0230
     54 H          12.7175    1.3608    0.0000 H       1  UNL1        0.0230
     55 H           2.9848   -3.6361    0.0000 H       1  UNL1        0.0267
     56 H           3.5953   -3.1238    0.0000 H       1  UNL1        0.0267
     57 H           6.8918   -1.4479    0.0000 H       1  UNL1        0.2922
     58 H           5.2812    2.3309    0.0000 H       1  UNL1        0.2922
     59 H           2.6275    0.1042    0.0000 H       1  UNL1        0.2922
     60 H           1.8923   -2.5793    0.0000 H       1  UNL1        0.0230
     61 H           1.3894   -3.2976    0.0000 H       1  UNL1        0.0230
     62 H           2.1077   -3.8004    0.0000 H       1  UNL1        0.0230
@<TRIPOS>BOND
     1     1    10    1
     2     1    43    1
     3     2    17    1
     4     2    46    1
     5     3    12    2
     6     4    20    1
     7     4    57    1
     8     5    21    1
     9     5    58    1
    10     6    19    2
    11     7    25    1
    12     7    59    1
    13     8    27    2
    14     9    10    1
    15     9    12    1
    16     9    15    1
    17     9    16    1
    18    10    11    2
    19    11    14    1
    20    11    17    1
    21    12    13    1
    22    13    17    2
    23    13    19    1
    24    14    18    1
    25    14    33    1
    26    14    34    1
    27    15    38    1
    28    15    39    1
    29    15    40    1
    30    16    35    1
    31    16    36    1
    32    16    37    1
    33    18    20   ar
    34    18    21   ar
    35    19    22    1
    36    20    23   ar
    37    21    24   ar
    38    22    26    1
    39    22    41    1
    40    22    42    1
    41    23    25   ar
    42    23    27    1
    43    24    25   ar
    44    24    29    1
    45    26    30    1
    46    26    44    1
    47    26    45    1
    48    27    28    1
    49    28    31    1
    50    28    47    1
    51    28    48    1
    52    29    49    1
    53    29    50    1
    54    29    51    1
    55    30    52    1
    56    30    53    1
    57    30    54    1
    58    31    32    1
    59    31    55    1
    60    31    56    1
    61    32    60    1
    62    32    61    1
    63    32    62    1
