@<TRIPOS>MOLECULE
IMPHY010481
 92 97 0 0 0
SMALL
GASTEIGER

@<TRIPOS>ATOM
      1 O           9.9650    0.8255    0.0000 O.3     1  UNL1       -0.3585
      2 O           7.8363    2.8173    0.0000 O.3     1  UNL1       -0.4581
      3 O           9.5407   -1.2697    0.0000 O.3     1  UNL1       -0.3888
      4 O          11.2842   -0.2898    0.0000 O.3     1  UNL1       -0.3858
      5 O          10.5045    3.2274    0.0000 O.3     1  UNL1       -0.4464
      6 O           8.6744   -1.8623    0.0000 O.3     1  UNL1       -0.3883
      7 O           6.8671   -2.9151    0.0000 O.3     1  UNL1       -0.3388
      8 O          11.9455    2.0687    0.0000 O.3     1  UNL1       -0.4659
      9 O          11.9255    0.3368    0.0000 O.2     1  UNL1       -0.2475
     10 O           8.7754    4.3083    0.0000 O.2     1  UNL1       -0.2466
     11 O           5.1350   -2.9151    0.0000 O.3     1  UNL1       -0.3405
     12 O           9.6975    4.7600    0.0000 O.2     1  UNL1       -0.2456
     13 O           6.8671   -4.9151    0.0000 O.3     1  UNL1       -0.3841
     14 O           5.1350   -5.9151    0.0000 O.3     1  UNL1       -0.3864
     15 O           3.4030   -4.9151    0.0000 O.3     1  UNL1       -0.3865
     16 O           2.5369   -3.4151    0.0000 O.3     1  UNL1       -0.3924
     17 C           8.7037    1.2401    0.0000 C.3     1  UNL1        0.0469
     18 C           8.6921    0.2402    0.0000 C.3     1  UNL1        0.0076
     19 C           9.5754    1.7301    0.0000 C.3     1  UNL1        0.0603
     20 C           7.7920   -0.2841    0.0000 C.3     1  UNL1        0.0092
     21 C           7.8160    1.7851    0.0000 C.3     1  UNL1        0.1123
     22 C          10.4356    1.2201    0.0000 C.3     1  UNL1        0.2007
     23 C           9.5523   -0.2698    0.0000 C.3     1  UNL1        0.0884
     24 C           6.8920    0.2402    0.0000 C.3     1  UNL1       -0.0085
     25 C           9.1651    0.8348    0.0000 C.3     1  UNL1        0.0591
     26 C          10.4241    0.2202    0.0000 C.3     1  UNL1        0.1210
     27 C           6.9040    1.2818    0.0000 C.3     1  UNL1       -0.0079
     28 C           9.6196    2.7615    0.0000 C.3     1  UNL1        0.2059
     29 C           7.8046   -1.3690    0.0000 C.3     1  UNL1        0.0912
     30 C           8.4319   -1.0526    0.0000 C.3     1  UNL1       -0.0562
     31 C           5.9421   -0.2841    0.0000 C.2     1  UNL1       -0.0702
     32 C           6.8671   -1.9151    0.0000 C.3     1  UNL1        0.1065
     33 C          11.4355    1.2085    0.0000 C.2     1  UNL1        0.3423
     34 C           8.7442    3.3088    0.0000 C.2     1  UNL1        0.3491
     35 C           5.9295   -1.3690    0.0000 C.2     1  UNL1       -0.0538
     36 C           5.0839    0.2292    0.0000 C.3     1  UNL1       -0.0434
     37 C          10.5434    4.2267    0.0000 C.2     1  UNL1        0.3327
     38 C           6.0010   -3.4151    0.0000 C.3     1  UNL1        0.1887
     39 C          12.9455    2.0572    0.0000 C.3     1  UNL1        0.0818
     40 C           6.0010   -4.4151    0.0000 C.3     1  UNL1        0.1341
     41 C          11.4283    4.6925    0.0000 C.2     1  UNL1        0.0212
     42 C           5.1350   -4.9151    0.0000 C.3     1  UNL1        0.1141
     43 C           4.2690   -3.4151    0.0000 C.3     1  UNL1        0.1130
     44 C           4.2690   -4.4151    0.0000 C.3     1  UNL1        0.1119
     45 C          11.4672    5.6918    0.0000 C.2     1  UNL1       -0.0690
     46 C           3.4030   -2.9151    0.0000 C.3     1  UNL1        0.0730
     47 C          12.3521    6.1577    0.0000 C.3     1  UNL1       -0.0435
     48 C          10.6213    6.2251    0.0000 C.3     1  UNL1       -0.0435
     49 H           8.6823   -0.6098    0.0000 H       1  UNL1        0.0340
     50 H           9.1590    2.4711    0.0000 H       1  UNL1        0.0384
     51 H           7.0883    2.2243    0.0000 H       1  UNL1        0.0740
     52 H          10.0856   -0.5860    0.0000 H       1  UNL1        0.0623
     53 H           6.1625    0.6765    0.0000 H       1  UNL1        0.0353
     54 H           8.6407    0.5040    0.0000 H       1  UNL1        0.0567
     55 H           9.3338    0.2382    0.0000 H       1  UNL1        0.0567
     56 H          10.9645    0.5239    0.0000 H       1  UNL1        0.0654
     57 H           6.7017    1.8678    0.0000 H       1  UNL1        0.0307
     58 H           6.2920    1.1827    0.0000 H       1  UNL1        0.0307
     59 H           9.6426    3.3811    0.0000 H       1  UNL1        0.0857
     60 H           7.8082   -1.9890    0.0000 H       1  UNL1        0.0628
     61 H           7.9554   -1.4493    0.0000 H       1  UNL1        0.0236
     62 H           8.8286   -1.5291    0.0000 H       1  UNL1        0.0236
     63 H           8.9084   -0.6559    0.0000 H       1  UNL1        0.0236
     64 H           7.4046   -2.2241    0.0000 H       1  UNL1        0.0668
     65 H           5.3902   -1.6749    0.0000 H       1  UNL1        0.0598
     66 H          10.0741   -1.5859    0.0000 H       1  UNL1        0.2099
     67 H          11.2771   -0.9098    0.0000 H       1  UNL1        0.2100
     68 H           8.6792   -2.4823    0.0000 H       1  UNL1        0.2099
     69 H           5.4021    0.7613    0.0000 H       1  UNL1        0.0274
     70 H           4.5518    0.5474    0.0000 H       1  UNL1        0.0274
     71 H           4.7656   -0.3029    0.0000 H       1  UNL1        0.0274
     72 H           6.0010   -2.7951    0.0000 H       1  UNL1        0.0938
     73 H          12.9383    1.4372    0.0000 H       1  UNL1        0.0661
     74 H          13.5654    2.0500    0.0000 H       1  UNL1        0.0661
     75 H          12.9526    2.6771    0.0000 H       1  UNL1        0.0661
     76 H           6.0010   -5.0351    0.0000 H       1  UNL1        0.0671
     77 H          11.9527    4.3619    0.0000 H       1  UNL1        0.0688
     78 H           4.5981   -5.2251    0.0000 H       1  UNL1        0.0648
     79 H           4.2690   -2.7951    0.0000 H       1  UNL1        0.0647
     80 H           3.7320   -4.1051    0.0000 H       1  UNL1        0.0647
     81 H           6.8671   -5.5351    0.0000 H       1  UNL1        0.2101
     82 H           3.8015   -2.4402    0.0000 H       1  UNL1        0.0584
     83 H           3.0044   -2.4402    0.0000 H       1  UNL1        0.0584
     84 H           4.5981   -6.2251    0.0000 H       1  UNL1        0.2100
     85 H           3.4030   -5.5351    0.0000 H       1  UNL1        0.2100
     86 H          12.6409    5.6091    0.0000 H       1  UNL1        0.0274
     87 H          10.9520    6.7496    0.0000 H       1  UNL1        0.0274
     88 H          10.0969    6.5558    0.0000 H       1  UNL1        0.0274
     89 H          10.2906    5.7007    0.0000 H       1  UNL1        0.0274
     90 H          12.9007    6.4465    0.0000 H       1  UNL1        0.0274
     91 H          12.0632    6.7063    0.0000 H       1  UNL1        0.0274
     92 H           2.0000   -3.1051    0.0000 H       1  UNL1        0.2095
@<TRIPOS>BOND
     1     1    22    1
     2     1    25    1
     3     2    21    1
     4     2    34    1
     5    23     3    1
     6     3    66    1
     7    26     4    1
     8     4    67    1
     9    28     5    1
    10     5    37    1
    11    29     6    1
    12     6    68    1
    13    32     7    1
    14    38     7    1
    15     8    33    1
    16     8    39    1
    17     9    33    2
    18    10    34    2
    19    11    38    1
    20    11    43    1
    21    12    37    2
    22    40    13    1
    23    13    81    1
    24    42    14    1
    25    14    84    1
    26    44    15    1
    27    15    85    1
    28    16    46    1
    29    16    92    1
    30    17    18    1
    31    17    19    1
    32    17    21    1
    33    17    25    1
    34    18    20    1
    35    18    23    1
    36    18    49    1
    37    19    22    1
    38    19    28    1
    39    19    50    1
    40    20    24    1
    41    20    29    1
    42    20    30    1
    43    21    27    1
    44    21    51    1
    45    22    26    1
    46    22    33    1
    47    23    26    1
    48    23    52    1
    49    24    27    1
    50    24    31    1
    51    24    53    1
    52    25    54    1
    53    25    55    1
    54    26    56    1
    55    27    57    1
    56    27    58    1
    57    28    34    1
    58    28    59    1
    59    29    32    1
    60    29    60    1
    61    30    61    1
    62    30    62    1
    63    30    63    1
    64    31    35    2
    65    31    36    1
    66    32    35    1
    67    32    64    1
    68    35    65    1
    69    36    69    1
    70    36    70    1
    71    36    71    1
    72    37    41    1
    73    38    40    1
    74    38    72    1
    75    39    73    1
    76    39    74    1
    77    39    75    1
    78    40    42    1
    79    40    76    1
    80    41    45    2
    81    41    77    1
    82    42    44    1
    83    42    78    1
    84    43    44    1
    85    43    46    1
    86    43    79    1
    87    44    80    1
    88    45    47    1
    89    45    48    1
    90    46    82    1
    91    46    83    1
    92    47    86    1
    93    47    90    1
    94    47    91    1
    95    48    87    1
    96    48    88    1
    97    48    89    1
