@<TRIPOS>MOLECULE
IMPHY001021
 46 49 0 0 0
SMALL
GASTEIGER

@<TRIPOS>ATOM
      1 O           3.9030   -1.2652    0.0000 O.3     1  UNL1       -0.3757
      2 O           2.8698   -0.6507    0.0000 O.3     1  UNL1       -0.4914
      3 O           2.8660    1.4018    0.0000 O.3     1  UNL1       -0.4914
      4 N           7.2787   -0.1232    0.0000 N.3     1  UNL1       -0.2850
      5 C           6.4091   -0.6252    0.0000 C.3     1  UNL1        0.0755
      6 C           5.3894   -0.8284    0.0000 C.3     1  UNL1        0.0039
      7 C           6.6192   -1.6010    0.0000 C.2     1  UNL1       -0.0256
      8 C           5.5395   -0.1232    0.0000 C.ar    1  UNL1       -0.0158
      9 C           7.2787    0.8809    0.0000 C.3     1  UNL1        0.0043
     10 C           8.0187   -0.7930    0.0000 C.3     1  UNL1        0.0188
     11 C           4.8699   -1.5205    0.0000 C.3     1  UNL1        0.0790
     12 C           6.4091    1.3830    0.0000 C.3     1  UNL1       -0.0144
     13 C           5.5395    0.8809    0.0000 C.ar    1  UNL1       -0.0372
     14 C           7.6119   -1.7046    0.0000 C.2     1  UNL1       -0.0648
     15 C           6.1128   -2.2437    0.0000 C.2     1  UNL1       -0.0583
     16 C           4.9828   -2.4018    0.0000 C.2     1  UNL1       -0.0553
     17 C           4.6418   -0.6601    0.0000 C.ar    1  UNL1       -0.0108
     18 C           4.6418    1.4178    0.0000 C.ar    1  UNL1       -0.0128
     19 C           3.7320   -0.1441    0.0000 C.ar    1  UNL1        0.1618
     20 C           3.7320    0.9018    0.0000 C.ar    1  UNL1        0.1618
     21 C           3.1985   -1.9748    0.0000 C.3     1  UNL1        0.0372
     22 C           2.0000   -0.1573    0.0000 C.3     1  UNL1        0.0790
     23 C           2.8660    2.4018    0.0000 C.3     1  UNL1        0.0790
     24 H           5.4411   -0.2105    0.0000 H       1  UNL1        0.0318
     25 H           4.8100   -0.6078    0.0000 H       1  UNL1        0.0318
     26 H           7.8892    0.7733    0.0000 H       1  UNL1        0.0430
     27 H           7.4907    1.4635    0.0000 H       1  UNL1        0.0430
     28 H           8.5552   -1.1038    0.0000 H       1  UNL1        0.0470
     29 H           8.3841   -0.2922    0.0000 H       1  UNL1        0.0470
     30 H           4.6664   -0.9348    0.0000 H       1  UNL1        0.0641
     31 H           6.8076    1.8580    0.0000 H       1  UNL1        0.0326
     32 H           6.0106    1.8580    0.0000 H       1  UNL1        0.0326
     33 H           7.9219   -2.2415    0.0000 H       1  UNL1        0.0588
     34 H           6.4215   -2.7814    0.0000 H       1  UNL1        0.0619
     35 H           4.6066   -2.8946    0.0000 H       1  UNL1        0.0598
     36 H           4.6490   -1.2800    0.0000 H       1  UNL1        0.0659
     37 H           4.6490    2.0378    0.0000 H       1  UNL1        0.0658
     38 H           2.7585   -1.5380    0.0000 H       1  UNL1        0.0524
     39 H           2.7616   -2.4148    0.0000 H       1  UNL1        0.0524
     40 H           3.6384   -2.4116    0.0000 H       1  UNL1        0.0524
     41 H           2.3059    0.3820    0.0000 H       1  UNL1        0.0660
     42 H           1.4607    0.1485    0.0000 H       1  UNL1        0.0660
     43 H           1.6941   -0.6966    0.0000 H       1  UNL1        0.0660
     44 H           3.4860    2.4018    0.0000 H       1  UNL1        0.0660
     45 H           2.8660    3.0218    0.0000 H       1  UNL1        0.0660
     46 H           2.2460    2.4018    0.0000 H       1  UNL1        0.0660
@<TRIPOS>BOND
     1    11     1    1
     2     1    21    1
     3     2    19    1
     4     2    22    1
     5     3    20    1
     6     3    23    1
     7     4     5    1
     8     4     9    1
     9     4    10    1
    10     5     6    1
    11     5     7    1
    12     5     8    1
    13     6    11    1
    14     6    24    1
    15     6    25    1
    16     7    14    2
    17     7    15    1
    18     8    13   ar
    19     8    17   ar
    20     9    12    1
    21     9    26    1
    22     9    27    1
    23    10    14    1
    24    10    28    1
    25    10    29    1
    26    11    16    1
    27    11    30    1
    28    12    13    1
    29    12    31    1
    30    12    32    1
    31    13    18   ar
    32    14    33    1
    33    15    16    2
    34    15    34    1
    35    16    35    1
    36    17    19   ar
    37    17    36    1
    38    18    20   ar
    39    18    37    1
    40    19    20   ar
    41    21    38    1
    42    21    39    1
    43    21    40    1
    44    22    41    1
    45    22    42    1
    46    22    43    1
    47    23    44    1
    48    23    45    1
    49    23    46    1
