@<TRIPOS>MOLECULE
IMPHY002213
 68 73 0 0 0
SMALL
GASTEIGER

@<TRIPOS>ATOM
      1 O           5.4305   -1.7483    0.0000 O.3     1  UNL1       -0.4609
      2 O           3.5363    1.5877    0.0000 O.3     1  UNL1       -0.3791
      3 O           7.2532    2.0135    0.0000 O.3     1  UNL1       -0.3871
      4 O           3.1355    2.4715    0.0000 O.3     1  UNL1       -0.3794
      5 O           7.0232   -2.4290    0.0000 O.2     1  UNL1       -0.2512
      6 N           8.4485    0.1845    0.0000 N.3     1  UNL1       -0.2978
      7 C           6.5018    0.5797    0.0000 C.3     1  UNL1        0.0263
      8 C           5.8235    1.1207    0.0000 C.3     1  UNL1       -0.0250
      9 C           7.5038    0.4737    0.0000 C.3     1  UNL1        0.0258
     10 C           6.5018   -0.2878    0.0000 C.3     1  UNL1        0.0164
     11 C           4.9777   -0.6357    0.0000 C.3     1  UNL1        0.0159
     12 C           4.9777    0.9276    0.0000 C.3     1  UNL1       -0.0076
     13 C           4.6013    0.1459    0.0000 C.3     1  UNL1       -0.0256
     14 C           5.8235   -0.8288    0.0000 C.3     1  UNL1        0.1118
     15 C           7.2532   -0.7216    0.0000 C.3     1  UNL1        0.0056
     16 C           5.9013    1.9848    0.0000 C.3     1  UNL1       -0.0416
     17 C           5.1036    2.3257    0.0000 C.3     1  UNL1        0.0121
     18 C           4.5327    1.6724    0.0000 C.3     1  UNL1        0.0668
     19 C           7.2532    1.0135    0.0000 C.3     1  UNL1        0.0811
     20 C           3.9564    0.4159    0.0000 C.3     1  UNL1       -0.0227
     21 C           8.4485   -0.5674    0.0000 C.3     1  UNL1        0.0084
     22 C           3.9564    1.9004    0.0000 C.3     1  UNL1        0.0638
     23 C           8.0045   -0.2878    0.0000 C.2     1  UNL1       -0.0780
     24 C           8.0045    0.5797    0.0000 C.2     1  UNL1       -0.0587
     25 C           7.2532   -1.7216    0.0000 C.3     1  UNL1       -0.0545
     26 C           9.2525    0.7792    0.0000 C.3     1  UNL1       -0.0036
     27 C          10.1695    0.3803    0.0000 C.3     1  UNL1       -0.0523
     28 C           6.0303   -2.5484    0.0000 C.2     1  UNL1        0.3042
     29 C           3.1114    0.6825    0.0000 C.3     1  UNL1        0.0368
     30 C           3.2197    3.4680    0.0000 C.3     1  UNL1        0.0368
     31 C           5.6373   -3.4680    0.0000 C.3     1  UNL1        0.0332
     32 H           6.6051    1.4547    0.0000 H       1  UNL1        0.0311
     33 H           7.9483    1.1982    0.0000 H       1  UNL1        0.0473
     34 H           6.5654   -1.1355    0.0000 H       1  UNL1        0.0352
     35 H           4.4477   -1.3003    0.0000 H       1  UNL1        0.0355
     36 H           4.1286    0.8895    0.0000 H       1  UNL1        0.0331
     37 H           4.0162   -0.4706    0.0000 H       1  UNL1        0.0309
     38 H           6.0239   -1.4155    0.0000 H       1  UNL1        0.0740
     39 H           6.0841    2.5772    0.0000 H       1  UNL1        0.0272
     40 H           6.5096    1.8649    0.0000 H       1  UNL1        0.0272
     41 H           5.1243    3.1755    0.0000 H       1  UNL1        0.0351
     42 H           4.2526    2.2255    0.0000 H       1  UNL1        0.0602
     43 H           6.7162    1.3235    0.0000 H       1  UNL1        0.0644
     44 H           3.7944   -0.1826    0.0000 H       1  UNL1        0.0293
     45 H           3.3418    0.4976    0.0000 H       1  UNL1        0.0293
     46 H           9.0679   -0.5409    0.0000 H       1  UNL1        0.0435
     47 H           8.5015   -1.1851    0.0000 H       1  UNL1        0.0435
     48 H           4.0346    2.5154    0.0000 H       1  UNL1        0.0599
     49 H           8.5414   -0.5978    0.0000 H       1  UNL1        0.0576
     50 H           8.5415    0.8897    0.0000 H       1  UNL1        0.0595
     51 H           7.8732   -1.7216    0.0000 H       1  UNL1        0.0239
     52 H           7.2532   -2.3416    0.0000 H       1  UNL1        0.0239
     53 H           6.6332   -1.7216    0.0000 H       1  UNL1        0.0239
     54 H           8.8028    1.2060    0.0000 H       1  UNL1        0.0424
     55 H           9.5948    1.2961    0.0000 H       1  UNL1        0.0424
     56 H           7.7901    2.3235    0.0000 H       1  UNL1        0.2102
     57 H          10.4168    0.9488    0.0000 H       1  UNL1        0.0242
     58 H          10.7380    0.1329    0.0000 H       1  UNL1        0.0242
     59 H           9.9221   -0.1883    0.0000 H       1  UNL1        0.0242
     60 H           3.6727    0.4190    0.0000 H       1  UNL1        0.0524
     61 H           2.8480    0.1212    0.0000 H       1  UNL1        0.0524
     62 H           2.5502    0.9459    0.0000 H       1  UNL1        0.0524
     63 H           2.6019    3.5201    0.0000 H       1  UNL1        0.0524
     64 H           3.2719    4.0858    0.0000 H       1  UNL1        0.0524
     65 H           3.8375    3.4158    0.0000 H       1  UNL1        0.0524
     66 H           6.2074   -3.7116    0.0000 H       1  UNL1        0.0342
     67 H           5.3936   -4.0381    0.0000 H       1  UNL1        0.0342
     68 H           5.0672   -3.2243    0.0000 H       1  UNL1        0.0342
@<TRIPOS>BOND
     1    14     1    1
     2     1    28    1
     3    18     2    1
     4     2    29    1
     5    19     3    1
     6     3    56    1
     7    22     4    1
     8     4    30    1
     9     5    28    2
    10     6     9    1
    11     6    21    1
    12     6    26    1
    13     7     8    1
    14     7     9    1
    15     7    10    1
    16     7    19    1
    17     8    12    1
    18     8    16    1
    19     8    32    1
    20     9    11    1
    21     9    33    1
    22    10    14    1
    23    10    15    1
    24    10    34    1
    25    11    13    1
    26    11    14    1
    27    11    35    1
    28    12    13    1
    29    12    18    1
    30    12    36    1
    31    13    20    1
    32    13    37    1
    33    14    38    1
    34    15    21    1
    35    15    23    1
    36    15    25    1
    37    16    17    1
    38    16    39    1
    39    16    40    1
    40    17    18    1
    41    17    22    1
    42    17    41    1
    43    18    42    1
    44    19    24    1
    45    19    43    1
    46    20    22    1
    47    20    44    1
    48    20    45    1
    49    21    46    1
    50    21    47    1
    51    22    48    1
    52    23    24    2
    53    23    49    1
    54    24    50    1
    55    25    51    1
    56    25    52    1
    57    25    53    1
    58    26    27    1
    59    26    54    1
    60    26    55    1
    61    27    57    1
    62    27    58    1
    63    27    59    1
    64    28    31    1
    65    29    60    1
    66    29    61    1
    67    29    62    1
    68    30    63    1
    69    30    64    1
    70    30    65    1
    71    31    66    1
    72    31    67    1
    73    31    68    1
