@<TRIPOS>MOLECULE
IMPHY017575
 107 106 0 0 0
SMALL
GASTEIGER

@<TRIPOS>ATOM
      1 O          15.8564    0.7500    0.0000 O.3     1  UNL1       -0.4645
      2 O          19.3205    0.7500    0.0000 O.3     1  UNL1       -0.4645
      3 O          14.9904   -0.7500    0.0000 O.2     1  UNL1       -0.2509
      4 O          20.1865   -0.7500    0.0000 O.2     1  UNL1       -0.2509
      5 C           8.0622    0.2500    0.0000 C.3     1  UNL1       -0.0531
      6 C          27.1147    0.2500    0.0000 C.3     1  UNL1       -0.0531
      7 C           8.9282    0.7500    0.0000 C.3     1  UNL1       -0.0531
      8 C          26.2487    0.7500    0.0000 C.3     1  UNL1       -0.0531
      9 C           7.1962    0.7500    0.0000 C.3     1  UNL1       -0.0531
     10 C          27.9808    0.7500    0.0000 C.3     1  UNL1       -0.0531
     11 C           9.7942    0.2500    0.0000 C.3     1  UNL1       -0.0531
     12 C          25.3827    0.2500    0.0000 C.3     1  UNL1       -0.0531
     13 C           6.3301    0.2500    0.0000 C.3     1  UNL1       -0.0531
     14 C          28.8468    0.2500    0.0000 C.3     1  UNL1       -0.0531
     15 C          10.6603    0.7500    0.0000 C.3     1  UNL1       -0.0531
     16 C          24.5167    0.7500    0.0000 C.3     1  UNL1       -0.0531
     17 C           5.4641    0.7500    0.0000 C.3     1  UNL1       -0.0531
     18 C          29.7128    0.7500    0.0000 C.3     1  UNL1       -0.0531
     19 C          11.5263    0.2500    0.0000 C.3     1  UNL1       -0.0530
     20 C          23.6506    0.2500    0.0000 C.3     1  UNL1       -0.0530
     21 C           4.5981    0.2500    0.0000 C.3     1  UNL1       -0.0531
     22 C          30.5788    0.2500    0.0000 C.3     1  UNL1       -0.0531
     23 C          12.3923    0.7500    0.0000 C.3     1  UNL1       -0.0526
     24 C          22.7846    0.7500    0.0000 C.3     1  UNL1       -0.0526
     25 C           3.7320    0.7500    0.0000 C.3     1  UNL1       -0.0533
     26 C          31.4449    0.7500    0.0000 C.3     1  UNL1       -0.0533
     27 C          13.2583    0.2500    0.0000 C.3     1  UNL1       -0.0430
     28 C          21.9186    0.2500    0.0000 C.3     1  UNL1       -0.0430
     29 C           2.8660    0.2500    0.0000 C.3     1  UNL1       -0.0559
     30 C          32.3109    0.2500    0.0000 C.3     1  UNL1       -0.0559
     31 C          14.1244    0.7500    0.0000 C.3     1  UNL1        0.0449
     32 C          21.0526    0.7500    0.0000 C.3     1  UNL1        0.0449
     33 C           2.0000    0.7500    0.0000 C.3     1  UNL1       -0.0653
     34 C          33.1769    0.7500    0.0000 C.3     1  UNL1       -0.0653
     35 C          14.9904    0.2500    0.0000 C.2     1  UNL1        0.3071
     36 C          20.1865    0.2500    0.0000 C.2     1  UNL1        0.3071
     37 C          17.5885    0.7500    0.0000 C.3     1  UNL1        0.0158
     38 C          16.7224    0.2500    0.0000 C.3     1  UNL1        0.0955
     39 C          18.4545    0.2500    0.0000 C.3     1  UNL1        0.0955
     40 H           7.6636   -0.2249    0.0000 H       1  UNL1        0.0265
     41 H           8.4607   -0.2249    0.0000 H       1  UNL1        0.0265
     42 H          26.7162   -0.2249    0.0000 H       1  UNL1        0.0265
     43 H          27.5133   -0.2249    0.0000 H       1  UNL1        0.0265
     44 H           9.3267    1.2250    0.0000 H       1  UNL1        0.0265
     45 H           8.5297    1.2250    0.0000 H       1  UNL1        0.0265
     46 H          26.6472    1.2250    0.0000 H       1  UNL1        0.0265
     47 H          25.8502    1.2250    0.0000 H       1  UNL1        0.0265
     48 H           7.5947    1.2250    0.0000 H       1  UNL1        0.0265
     49 H           6.7976    1.2250    0.0000 H       1  UNL1        0.0265
     50 H          28.3793    1.2250    0.0000 H       1  UNL1        0.0265
     51 H          27.5822    1.2250    0.0000 H       1  UNL1        0.0265
     52 H           9.3957   -0.2249    0.0000 H       1  UNL1        0.0265
     53 H          10.1928   -0.2249    0.0000 H       1  UNL1        0.0265
     54 H          24.9842   -0.2249    0.0000 H       1  UNL1        0.0265
     55 H          25.7812   -0.2249    0.0000 H       1  UNL1        0.0265
     56 H           5.9316   -0.2249    0.0000 H       1  UNL1        0.0265
     57 H           6.7287   -0.2249    0.0000 H       1  UNL1        0.0265
     58 H          28.4483   -0.2249    0.0000 H       1  UNL1        0.0265
     59 H          29.2453   -0.2249    0.0000 H       1  UNL1        0.0265
     60 H          11.0588    1.2250    0.0000 H       1  UNL1        0.0265
     61 H          10.2617    1.2250    0.0000 H       1  UNL1        0.0265
     62 H          24.9152    1.2250    0.0000 H       1  UNL1        0.0265
     63 H          24.1181    1.2250    0.0000 H       1  UNL1        0.0265
     64 H           5.8626    1.2250    0.0000 H       1  UNL1        0.0265
     65 H           5.0656    1.2250    0.0000 H       1  UNL1        0.0265
     66 H          30.1113    1.2250    0.0000 H       1  UNL1        0.0265
     67 H          29.3143    1.2250    0.0000 H       1  UNL1        0.0265
     68 H          11.1278   -0.2249    0.0000 H       1  UNL1        0.0265
     69 H          11.9248   -0.2249    0.0000 H       1  UNL1        0.0265
     70 H          23.2521   -0.2249    0.0000 H       1  UNL1        0.0265
     71 H          24.0492   -0.2249    0.0000 H       1  UNL1        0.0265
     72 H           4.1996   -0.2249    0.0000 H       1  UNL1        0.0265
     73 H           4.9966   -0.2249    0.0000 H       1  UNL1        0.0265
     74 H          30.1803   -0.2249    0.0000 H       1  UNL1        0.0265
     75 H          30.9774   -0.2249    0.0000 H       1  UNL1        0.0265
     76 H          12.7908    1.2250    0.0000 H       1  UNL1        0.0265
     77 H          11.9938    1.2250    0.0000 H       1  UNL1        0.0265
     78 H          23.1831    1.2250    0.0000 H       1  UNL1        0.0265
     79 H          22.3861    1.2250    0.0000 H       1  UNL1        0.0265
     80 H           4.1306    1.2250    0.0000 H       1  UNL1        0.0265
     81 H           3.3335    1.2250    0.0000 H       1  UNL1        0.0265
     82 H          31.8434    1.2250    0.0000 H       1  UNL1        0.0265
     83 H          31.0463    1.2250    0.0000 H       1  UNL1        0.0265
     84 H          12.8598   -0.2249    0.0000 H       1  UNL1        0.0270
     85 H          13.6569   -0.2249    0.0000 H       1  UNL1        0.0270
     86 H          21.5201   -0.2249    0.0000 H       1  UNL1        0.0270
     87 H          22.3171   -0.2249    0.0000 H       1  UNL1        0.0270
     88 H           2.4675   -0.2249    0.0000 H       1  UNL1        0.0263
     89 H           3.2646   -0.2249    0.0000 H       1  UNL1        0.0263
     90 H          31.9124   -0.2249    0.0000 H       1  UNL1        0.0263
     91 H          32.7094   -0.2249    0.0000 H       1  UNL1        0.0263
     92 H          14.5229    1.2250    0.0000 H       1  UNL1        0.0377
     93 H          13.7258    1.2250    0.0000 H       1  UNL1        0.0377
     94 H          21.4511    1.2250    0.0000 H       1  UNL1        0.0377
     95 H          20.6540    1.2250    0.0000 H       1  UNL1        0.0377
     96 H           2.3100    1.2869    0.0000 H       1  UNL1        0.0230
     97 H           1.4631    1.0600    0.0000 H       1  UNL1        0.0230
     98 H           1.6900    0.2131    0.0000 H       1  UNL1        0.0230
     99 H          33.4869    0.2131    0.0000 H       1  UNL1        0.0230
    100 H          33.7138    1.0600    0.0000 H       1  UNL1        0.0230
    101 H          32.8669    1.2869    0.0000 H       1  UNL1        0.0230
    102 H          17.9870    1.2250    0.0000 H       1  UNL1        0.0331
    103 H          17.1899    1.2250    0.0000 H       1  UNL1        0.0331
    104 H          16.3239   -0.2249    0.0000 H       1  UNL1        0.0698
    105 H          17.1210   -0.2249    0.0000 H       1  UNL1        0.0698
    106 H          18.0560   -0.2249    0.0000 H       1  UNL1        0.0698
    107 H          18.8530   -0.2249    0.0000 H       1  UNL1        0.0698
@<TRIPOS>BOND
     1     1    35    1
     2     1    38    1
     3     2    36    1
     4     2    39    1
     5     3    35    2
     6     4    36    2
     7     5     7    1
     8     5     9    1
     9     5    40    1
    10     5    41    1
    11     6     8    1
    12     6    10    1
    13     6    42    1
    14     6    43    1
    15     7    11    1
    16     7    44    1
    17     7    45    1
    18     8    12    1
    19     8    46    1
    20     8    47    1
    21     9    13    1
    22     9    48    1
    23     9    49    1
    24    10    14    1
    25    10    50    1
    26    10    51    1
    27    11    15    1
    28    11    52    1
    29    11    53    1
    30    12    16    1
    31    12    54    1
    32    12    55    1
    33    13    17    1
    34    13    56    1
    35    13    57    1
    36    14    18    1
    37    14    58    1
    38    14    59    1
    39    15    19    1
    40    15    60    1
    41    15    61    1
    42    16    20    1
    43    16    62    1
    44    16    63    1
    45    17    21    1
    46    17    64    1
    47    17    65    1
    48    18    22    1
    49    18    66    1
    50    18    67    1
    51    19    23    1
    52    19    68    1
    53    19    69    1
    54    20    24    1
    55    20    70    1
    56    20    71    1
    57    21    25    1
    58    21    72    1
    59    21    73    1
    60    22    26    1
    61    22    74    1
    62    22    75    1
    63    23    27    1
    64    23    76    1
    65    23    77    1
    66    24    28    1
    67    24    78    1
    68    24    79    1
    69    25    29    1
    70    25    80    1
    71    25    81    1
    72    26    30    1
    73    26    82    1
    74    26    83    1
    75    27    31    1
    76    27    84    1
    77    27    85    1
    78    28    32    1
    79    28    86    1
    80    28    87    1
    81    29    33    1
    82    29    88    1
    83    29    89    1
    84    30    34    1
    85    30    90    1
    86    30    91    1
    87    31    35    1
    88    31    92    1
    89    31    93    1
    90    32    36    1
    91    32    94    1
    92    32    95    1
    93    33    96    1
    94    33    97    1
    95    33    98    1
    96    34    99    1
    97    34   100    1
    98    34   101    1
    99    37    38    1
   100    37    39    1
   101    37   102    1
   102    37   103    1
   103    38   104    1
   104    38   105    1
   105    39   106    1
   106    39   107    1
