@<TRIPOS>MOLECULE
IMPHY007588
 100 106 0 0 0
SMALL
GASTEIGER

@<TRIPOS>ATOM
      1 O           3.4806    1.6143    0.0000 O.3     1  UNL1       -0.3815
      2 O           3.0393    2.4524    0.0000 O.3     1  UNL1       -0.3851
      3 O           4.5569    1.2836    0.0000 O.3     1  UNL1       -0.3765
      4 O           6.3796    5.0454    0.0000 O.3     1  UNL1       -0.3791
      5 O           2.6627    4.6195    0.0000 O.3     1  UNL1       -0.3790
      6 O           2.2619    5.5033    0.0000 O.3     1  UNL1       -0.3793
      7 O           7.2456    0.8102    0.0000 O.3     1  UNL1       -0.4605
      8 O           6.3796   -0.6898    0.0000 O.2     1  UNL1       -0.2449
      9 O           8.1116   -3.6898    0.0000 O.2     1  UNL1       -0.2755
     10 O           4.6475   -4.6898    0.0000 O.2     1  UNL1       -0.2760
     11 N           7.5749    3.2163    0.0000 N.3     1  UNL1       -0.2955
     12 N           7.2456   -2.1898    0.0000 N.am    1  UNL1       -0.2848
     13 N           5.5135   -6.1898    0.0000 N.am    1  UNL1       -0.3293
     14 C           5.6282    3.6116    0.0000 C.3     1  UNL1        0.0245
     15 C           5.6282    2.7440    0.0000 C.3     1  UNL1        0.0078
     16 C           6.6302    3.5055    0.0000 C.3     1  UNL1        0.0529
     17 C           4.9499    4.1525    0.0000 C.3     1  UNL1       -0.0228
     18 C           4.1041    2.3961    0.0000 C.3     1  UNL1        0.1371
     19 C           4.1041    3.9594    0.0000 C.3     1  UNL1        0.0209
     20 C           3.7277    3.1778    0.0000 C.3     1  UNL1        0.1063
     21 C           4.9499    2.2031    0.0000 C.3     1  UNL1        0.0953
     22 C           6.3796    2.3102    0.0000 C.3     1  UNL1        0.0236
     23 C           6.3796    4.0454    0.0000 C.3     1  UNL1        0.0661
     24 C           5.0277    5.0166    0.0000 C.3     1  UNL1       -0.0416
     25 C           4.2299    5.3576    0.0000 C.3     1  UNL1        0.0123
     26 C           3.6591    4.7042    0.0000 C.3     1  UNL1        0.0693
     27 C           3.0828    3.4477    0.0000 C.3     1  UNL1        0.0059
     28 C           7.5749    2.4644    0.0000 C.3     1  UNL1        0.0084
     29 C           7.1309    2.7440    0.0000 C.3     1  UNL1       -0.0404
     30 C           3.0828    4.9322    0.0000 C.3     1  UNL1        0.0662
     31 C           7.1309    3.6116    0.0000 C.3     1  UNL1       -0.0254
     32 C           6.3796    1.3102    0.0000 C.3     1  UNL1        0.0999
     33 C           8.3788    3.8110    0.0000 C.3     1  UNL1       -0.0035
     34 C           5.1567    0.4834    0.0000 C.3     1  UNL1        0.0369
     35 C           9.2958    3.4121    0.0000 C.3     1  UNL1       -0.0523
     36 C           7.2456    5.5454    0.0000 C.3     1  UNL1        0.0368
     37 C           2.2378    3.7143    0.0000 C.3     1  UNL1        0.0368
     38 C           2.3461    6.4998    0.0000 C.3     1  UNL1        0.0368
     39 C           7.2456   -0.1898    0.0000 C.2     1  UNL1        0.3410
     40 C           8.1116   -0.6898    0.0000 C.ar    1  UNL1        0.0801
     41 C           8.1116   -1.6898    0.0000 C.ar    1  UNL1        0.0474
     42 C           8.9776   -0.1898    0.0000 C.ar    1  UNL1       -0.0460
     43 C           8.9776   -2.1898    0.0000 C.ar    1  UNL1       -0.0397
     44 C           9.8437   -0.6898    0.0000 C.ar    1  UNL1       -0.0609
     45 C           9.8437   -1.6898    0.0000 C.ar    1  UNL1       -0.0600
     46 C           7.2456   -3.1898    0.0000 C.2     1  UNL1        0.2177
     47 C           6.3796   -3.6898    0.0000 C.3     1  UNL1        0.0325
     48 C           6.3796   -4.6898    0.0000 C.3     1  UNL1        0.0320
     49 C           5.5135   -5.1898    0.0000 C.2     1  UNL1        0.2109
     50 H           5.6917    1.8964    0.0000 H       1  UNL1        0.0340
     51 H           6.9421    4.2962    0.0000 H       1  UNL1        0.0499
     52 H           5.7315    4.4866    0.0000 H       1  UNL1        0.0312
     53 H           3.2549    3.9213    0.0000 H       1  UNL1        0.0358
     54 H           5.1503    1.6164    0.0000 H       1  UNL1        0.0629
     55 H           5.8426    4.3554    0.0000 H       1  UNL1        0.0602
     56 H           5.2104    5.6090    0.0000 H       1  UNL1        0.0272
     57 H           5.6360    4.8968    0.0000 H       1  UNL1        0.0272
     58 H           4.2507    6.2073    0.0000 H       1  UNL1        0.0351
     59 H           3.3790    5.2573    0.0000 H       1  UNL1        0.0603
     60 H           2.9208    2.8492    0.0000 H       1  UNL1        0.0319
     61 H           2.4682    3.5294    0.0000 H       1  UNL1        0.0319
     62 H           8.1943    2.4910    0.0000 H       1  UNL1        0.0433
     63 H           7.6279    1.8467    0.0000 H       1  UNL1        0.0433
     64 H           7.7415    2.8516    0.0000 H       1  UNL1        0.0273
     65 H           7.3430    2.1614    0.0000 H       1  UNL1        0.0273
     66 H           3.1609    5.5473    0.0000 H       1  UNL1        0.0600
     67 H           7.3430    4.1942    0.0000 H       1  UNL1        0.0290
     68 H           7.7415    3.5039    0.0000 H       1  UNL1        0.0290
     69 H           6.1675    0.7276    0.0000 H       1  UNL1        0.0704
     70 H           5.7690    1.4179    0.0000 H       1  UNL1        0.0704
     71 H           3.7071    1.0372    0.0000 H       1  UNL1        0.2105
     72 H           2.4365    2.5971    0.0000 H       1  UNL1        0.2103
     73 H           7.9292    4.2379    0.0000 H       1  UNL1        0.0424
     74 H           8.7212    4.3280    0.0000 H       1  UNL1        0.0424
     75 H           5.6528    0.8553    0.0000 H       1  UNL1        0.0524
     76 H           5.5286   -0.0127    0.0000 H       1  UNL1        0.0524
     77 H           4.6606    0.1115    0.0000 H       1  UNL1        0.0524
     78 H           9.5432    3.9806    0.0000 H       1  UNL1        0.0242
     79 H           9.8644    3.1648    0.0000 H       1  UNL1        0.0242
     80 H           9.0485    2.8436    0.0000 H       1  UNL1        0.0242
     81 H           6.9356    6.0823    0.0000 H       1  UNL1        0.0524
     82 H           7.7825    5.8554    0.0000 H       1  UNL1        0.0524
     83 H           7.5556    5.0084    0.0000 H       1  UNL1        0.0524
     84 H           2.7991    3.4509    0.0000 H       1  UNL1        0.0524
     85 H           1.9744    3.1530    0.0000 H       1  UNL1        0.0524
     86 H           1.6766    3.9777    0.0000 H       1  UNL1        0.0524
     87 H           1.7283    6.5520    0.0000 H       1  UNL1        0.0524
     88 H           2.3982    7.1176    0.0000 H       1  UNL1        0.0524
     89 H           2.9639    6.4476    0.0000 H       1  UNL1        0.0524
     90 H           8.9776    0.4302    0.0000 H       1  UNL1        0.0626
     91 H           8.9776   -2.8098    0.0000 H       1  UNL1        0.0636
     92 H          10.3806   -0.3798    0.0000 H       1  UNL1        0.0618
     93 H           6.7086   -1.8798    0.0000 H       1  UNL1        0.1548
     94 H          10.3806   -1.9998    0.0000 H       1  UNL1        0.0618
     95 H           5.7690   -3.7974    0.0000 H       1  UNL1        0.0363
     96 H           6.1675   -3.1072    0.0000 H       1  UNL1        0.0363
     97 H           6.9901   -4.5821    0.0000 H       1  UNL1        0.0363
     98 H           6.5916   -5.2724    0.0000 H       1  UNL1        0.0363
     99 H           4.9766   -6.4998    0.0000 H       1  UNL1        0.1449
    100 H           6.0505   -6.4998    0.0000 H       1  UNL1        0.1449
@<TRIPOS>BOND
     1    18     1    1
     2     1    71    1
     3    20     2    1
     4     2    72    1
     5    21     3    1
     6     3    34    1
     7    23     4    1
     8     4    36    1
     9    26     5    1
    10     5    37    1
    11    30     6    1
    12     6    38    1
    13     7    32    1
    14     7    39    1
    15     8    39    2
    16     9    46    2
    17    10    49    2
    18    11    16    1
    19    11    28    1
    20    11    33    1
    21    12    41    1
    22    12    46   am
    23    12    93    1
    24    13    49   am
    25    13    99    1
    26    13   100    1
    27    14    15    1
    28    14    16    1
    29    14    17    1
    30    14    23    1
    31    15    21    1
    32    15    22    1
    33    15    50    1
    34    16    18    1
    35    16    51    1
    36    17    19    1
    37    17    24    1
    38    17    52    1
    39    18    20    1
    40    18    21    1
    41    19    20    1
    42    19    26    1
    43    19    53    1
    44    20    27    1
    45    21    54    1
    46    22    28    1
    47    22    29    1
    48    22    32    1
    49    23    31    1
    50    23    55    1
    51    24    25    1
    52    24    56    1
    53    24    57    1
    54    25    26    1
    55    25    30    1
    56    25    58    1
    57    26    59    1
    58    27    30    1
    59    27    60    1
    60    27    61    1
    61    28    62    1
    62    28    63    1
    63    29    31    1
    64    29    64    1
    65    29    65    1
    66    30    66    1
    67    31    67    1
    68    31    68    1
    69    32    69    1
    70    32    70    1
    71    33    35    1
    72    33    73    1
    73    33    74    1
    74    34    75    1
    75    34    76    1
    76    34    77    1
    77    35    78    1
    78    35    79    1
    79    35    80    1
    80    36    81    1
    81    36    82    1
    82    36    83    1
    83    37    84    1
    84    37    85    1
    85    37    86    1
    86    38    87    1
    87    38    88    1
    88    38    89    1
    89    39    40    1
    90    40    41   ar
    91    40    42   ar
    92    41    43   ar
    93    42    44   ar
    94    42    90    1
    95    43    45   ar
    96    43    91    1
    97    44    45   ar
    98    44    92    1
    99    45    94    1
   100    46    47    1
   101    47    48    1
   102    47    95    1
   103    47    96    1
   104    48    49    1
   105    48    97    1
   106    48    98    1
