@<TRIPOS>MOLECULE
IMPHY005037
 77 82 0 0 0
SMALL
GASTEIGER

@<TRIPOS>ATOM
      1 O           7.8521   -1.6488    0.0000 O.3     1  UNL1       -0.3730
      2 O           8.1002    0.6295    0.0000 O.3     1  UNL1       -0.3884
      3 O           3.7319   -0.8673    0.0000 O.3     1  UNL1       -0.4608
      4 O           5.4900   -3.9397    0.0000 O.3     1  UNL1       -0.4608
      5 O           3.6562    4.7810    0.0000 O.2     1  UNL1       -0.4708
      6 O           2.8486   -2.3572    0.0000 O.2     1  UNL1       -0.2512
      7 O           3.7580   -3.9464    0.0000 O.2     1  UNL1       -0.2512
      8 C           5.5021   -0.8705    0.0000 C.3     1  UNL1        0.0147
      9 C           6.3682   -1.3705    0.0000 C.3     1  UNL1        0.0076
     10 C           5.5021    0.1295    0.0000 C.3     1  UNL1       -0.0203
     11 C           6.3682    0.6295    0.0000 C.3     1  UNL1        0.0212
     12 C           6.3842   -2.4120    0.0000 C.3     1  UNL1        0.0343
     13 C           7.2342   -0.8705    0.0000 C.3     1  UNL1        0.0894
     14 C           7.2342    0.1295    0.0000 C.3     1  UNL1        0.0909
     15 C           4.5921   -1.3773    0.0000 C.3     1  UNL1        0.1124
     16 C           4.5921    0.6364    0.0000 C.3     1  UNL1       -0.0479
     17 C           6.3842    1.6710    0.0000 C.2     1  UNL1       -0.0582
     18 C           5.4862    2.1988    0.0000 C.3     1  UNL1       -0.0033
     19 C           5.4862   -2.9397    0.0000 C.3     1  UNL1        0.1142
     20 C           7.3722   -2.5191    0.0000 C.3     1  UNL1        0.0572
     21 C           4.5841   -2.4189    0.0000 C.3     1  UNL1        0.0227
     22 C           4.5841    1.6780    0.0000 C.3     1  UNL1       -0.0430
     23 C           4.6361   -0.3705    0.0000 C.3     1  UNL1       -0.0555
     24 C           7.2342    1.1295    0.0000 C.3     1  UNL1       -0.0531
     25 C           5.7119    3.2093    0.0000 C.3     1  UNL1       -0.0004
     26 C           6.8942   -3.2722    0.0000 C.3     1  UNL1       -0.0537
     27 C           7.1572    2.3599    0.0000 C.2     1  UNL1       -0.0830
     28 C           6.7426    3.3087    0.0000 C.3     1  UNL1       -0.0267
     29 C           4.6240    2.7054    0.0000 C.3     1  UNL1       -0.0553
     30 C           5.0498    3.9588    0.0000 C.ar    1  UNL1       -0.0055
     31 C           2.8602   -1.3573    0.0000 C.2     1  UNL1        0.3042
     32 C           4.6259   -4.4431    0.0000 C.2     1  UNL1        0.3042
     33 C           5.2669    4.9349    0.0000 C.ar    1  UNL1       -0.0204
     34 C           4.0543    3.8636    0.0000 C.ar    1  UNL1        0.0951
     35 C           2.0000   -0.8473    0.0000 C.3     1  UNL1        0.0332
     36 C           4.4057    5.4431    0.0000 C.ar    1  UNL1        0.0920
     37 C           4.6298   -5.4431    0.0000 C.3     1  UNL1        0.0332
     38 H           5.6320   -1.7955    0.0000 H       1  UNL1        0.0340
     39 H           6.2382   -0.2955    0.0000 H       1  UNL1        0.0316
     40 H           8.0368   -0.5906    0.0000 H       1  UNL1        0.0625
     41 H           7.7711   -0.1805    0.0000 H       1  UNL1        0.0628
     42 H           4.0522   -1.6821    0.0000 H       1  UNL1        0.0741
     43 H           3.9805    0.7377    0.0000 H       1  UNL1        0.0269
     44 H           4.3876    0.0511    0.0000 H       1  UNL1        0.0269
     45 H           6.0249   -3.2466    0.0000 H       1  UNL1        0.0741
     46 H           7.2249   -3.1214    0.0000 H       1  UNL1        0.0567
     47 H           7.9498   -2.7445    0.0000 H       1  UNL1        0.0567
     48 H           3.9741   -2.3081    0.0000 H       1  UNL1        0.0337
     49 H           4.3705   -3.0010    0.0000 H       1  UNL1        0.0337
     50 H           4.3705    2.2600    0.0000 H       1  UNL1        0.0274
     51 H           3.9741    1.5672    0.0000 H       1  UNL1        0.0274
     52 H           4.9461    0.1665    0.0000 H       1  UNL1        0.0236
     53 H           4.0992   -0.0605    0.0000 H       1  UNL1        0.0236
     54 H           4.3261   -0.9074    0.0000 H       1  UNL1        0.0236
     55 H           7.5442    0.5926    0.0000 H       1  UNL1        0.0239
     56 H           7.7711    1.4395    0.0000 H       1  UNL1        0.0239
     57 H           6.9242    1.6664    0.0000 H       1  UNL1        0.0239
     58 H           5.9393    3.7861    0.0000 H       1  UNL1        0.0361
     59 H           6.3609   -3.5884    0.0000 H       1  UNL1        0.0237
     60 H           7.2104   -3.8055    0.0000 H       1  UNL1        0.0237
     61 H           7.4275   -2.9560    0.0000 H       1  UNL1        0.0237
     62 H           7.7629    2.2274    0.0000 H       1  UNL1        0.0572
     63 H           7.3336    3.4960    0.0000 H       1  UNL1        0.0314
     64 H           6.6185    3.9162    0.0000 H       1  UNL1        0.0314
     65 H           4.9382    3.2400    0.0000 H       1  UNL1        0.0238
     66 H           4.0895    3.0196    0.0000 H       1  UNL1        0.0238
     67 H           4.3099    2.1709    0.0000 H       1  UNL1        0.0238
     68 H           8.6371    0.3195    0.0000 H       1  UNL1        0.2099
     69 H           5.8357    5.1817    0.0000 H       1  UNL1        0.0652
     70 H           3.7393    3.3296    0.0000 H       1  UNL1        0.1032
     71 H           2.3162   -0.3140    0.0000 H       1  UNL1        0.0342
     72 H           1.4667   -0.5311    0.0000 H       1  UNL1        0.0342
     73 H           1.6838   -1.3806    0.0000 H       1  UNL1        0.0342
     74 H           4.3467    6.0602    0.0000 H       1  UNL1        0.1029
     75 H           4.0098   -5.4454    0.0000 H       1  UNL1        0.0342
     76 H           4.6322   -6.0631    0.0000 H       1  UNL1        0.0342
     77 H           5.2498   -5.4407    0.0000 H       1  UNL1        0.0342
@<TRIPOS>BOND
     1     1    13    1
     2     1    20    1
     3    14     2    1
     4     2    68    1
     5    15     3    1
     6     3    31    1
     7    19     4    1
     8     4    32    1
     9     5    34   ar
    10     5    36   ar
    11     6    31    2
    12     7    32    2
    13     8     9    1
    14     8    10    1
    15     8    15    1
    16     8    23    1
    17     9    12    1
    18     9    13    1
    19     9    38    1
    20    10    11    1
    21    10    16    1
    22    10    39    1
    23    11    14    1
    24    11    17    1
    25    11    24    1
    26    12    19    1
    27    12    20    1
    28    12    26    1
    29    13    14    1
    30    13    40    1
    31    14    41    1
    32    15    21    1
    33    15    42    1
    34    16    22    1
    35    16    43    1
    36    16    44    1
    37    17    18    1
    38    17    27    2
    39    18    22    1
    40    18    25    1
    41    18    29    1
    42    19    21    1
    43    19    45    1
    44    20    46    1
    45    20    47    1
    46    21    48    1
    47    21    49    1
    48    22    50    1
    49    22    51    1
    50    23    52    1
    51    23    53    1
    52    23    54    1
    53    24    55    1
    54    24    56    1
    55    24    57    1
    56    25    28    1
    57    25    30    1
    58    25    58    1
    59    26    59    1
    60    26    60    1
    61    26    61    1
    62    27    28    1
    63    27    62    1
    64    28    63    1
    65    28    64    1
    66    29    65    1
    67    29    66    1
    68    29    67    1
    69    30    33   ar
    70    30    34   ar
    71    31    35    1
    72    32    37    1
    73    33    36   ar
    74    33    69    1
    75    34    70    1
    76    35    71    1
    77    35    72    1
    78    35    73    1
    79    36    74    1
    80    37    75    1
    81    37    76    1
    82    37    77    1
