@<TRIPOS>MOLECULE
IMPHY009874
 32 33 0 0 0
SMALL
GASTEIGER

@<TRIPOS>ATOM
      1 O           2.8131   -1.4071    0.0000 O.3     1  UNL1       -0.4604
      2 O           3.7310   -2.8760    0.0000 O.2     1  UNL1       -0.2512
      3 C           6.2463    0.9967    0.0000 C.3     1  UNL1       -0.0251
      4 C           5.1061    1.9538    0.0000 C.3     1  UNL1       -0.0313
      5 C           4.8473    0.9879    0.0000 C.3     1  UNL1       -0.0111
      6 C           4.3695    2.9364    0.0000 C.3     1  UNL1       -0.0423
      7 C           3.0729    1.6427    0.0000 C.3     1  UNL1       -0.0310
      8 C           3.6263    0.1222    0.0000 C.2     1  UNL1       -0.0329
      9 C           6.7463    0.1307    0.0000 C.3     1  UNL1       -0.0590
     10 C           7.1123    1.4967    0.0000 C.3     1  UNL1       -0.0590
     11 C           2.7973    0.6814    0.0000 C.2     1  UNL1       -0.0810
     12 C           3.6612   -0.8772    0.0000 C.3     1  UNL1        0.1139
     13 C           2.8481   -2.4065    0.0000 C.2     1  UNL1        0.3042
     14 C           2.0000   -2.9364    0.0000 C.3     1  UNL1        0.0332
     15 H           5.5564    2.3800    0.0000 H       1  UNL1        0.0309
     16 H           5.0374    0.3977    0.0000 H       1  UNL1        0.0352
     17 H           4.6873    3.4688    0.0000 H       1  UNL1        0.0274
     18 H           3.7564    3.0284    0.0000 H       1  UNL1        0.0274
     19 H           3.0678    2.2626    0.0000 H       1  UNL1        0.0310
     20 H           2.4586    1.7264    0.0000 H       1  UNL1        0.0310
     21 H           7.4223    0.9598    0.0000 H       1  UNL1        0.0235
     22 H           6.2093   -0.1793    0.0000 H       1  UNL1        0.0235
     23 H           7.0563   -0.4063    0.0000 H       1  UNL1        0.0235
     24 H           7.2832    0.4407    0.0000 H       1  UNL1        0.0235
     25 H           7.6492    1.8067    0.0000 H       1  UNL1        0.0235
     26 H           6.8023    2.0336    0.0000 H       1  UNL1        0.0235
     27 H           2.2146    0.4694    0.0000 H       1  UNL1        0.0573
     28 H           3.8934   -1.4520    0.0000 H       1  UNL1        0.0745
     29 H           4.2676   -0.7483    0.0000 H       1  UNL1        0.0745
     30 H           1.6714   -2.4106    0.0000 H       1  UNL1        0.0342
     31 H           1.4742   -3.2650    0.0000 H       1  UNL1        0.0342
     32 H           2.3286   -3.4622    0.0000 H       1  UNL1        0.0342
@<TRIPOS>BOND
     1     1    12    1
     2     1    13    1
     3     2    13    2
     4     3     4    1
     5     3     5    1
     6     3     9    1
     7     3    10    1
     8     4     6    1
     9     4     7    1
    10     4    15    1
    11     5     6    1
    12     5     8    1
    13     5    16    1
    14     6    17    1
    15     6    18    1
    16     7    11    1
    17     7    19    1
    18     7    20    1
    19     8    11    2
    20     8    12    1
    21     9    22    1
    22     9    23    1
    23     9    24    1
    24    10    21    1
    25    10    25    1
    26    10    26    1
    27    11    27    1
    28    12    28    1
    29    12    29    1
    30    13    14    1
    31    14    30    1
    32    14    31    1
    33    14    32    1
