@<TRIPOS>MOLECULE
IMPHY014571
 49 54 0 0 0
SMALL
GASTEIGER

@<TRIPOS>ATOM
      1 O           6.1432   -0.2158    0.0000 O.3     1  UNL1       -0.3748
      2 O           6.3492    2.4203    0.0000 O.3     1  UNL1       -0.3914
      3 O           4.5155   -0.9861    0.0000 O.2     1  UNL1       -0.2744
      4 N           2.9827    0.6706    0.0000 N.3     1  UNL1       -0.3011
      5 N           5.7756   -2.2461    0.0000 N.am    1  UNL1       -0.2844
      6 C           5.4096    0.7927    0.0000 C.3     1  UNL1        0.0180
      7 C           5.4096   -0.2073    0.0000 C.3     1  UNL1        0.0048
      8 C           6.2756    1.2927    0.0000 C.3     1  UNL1       -0.0228
      9 C           4.7883    0.5747    0.0000 C.3     1  UNL1        0.0201
     10 C           5.2877    1.4397    0.0000 C.3     1  UNL1        0.0019
     11 C           6.2756   -0.7073    0.0000 C.3     1  UNL1        0.1046
     12 C           4.2494   -0.3271    0.0000 C.3     1  UNL1        0.0075
     13 C           7.1416   -0.2073    0.0000 C.3     1  UNL1        0.0773
     14 C           7.1416    0.7927    0.0000 C.3     1  UNL1       -0.0214
     15 C           5.5832    1.7775    0.0000 C.3     1  UNL1        0.0598
     16 C           5.3968    0.4473    0.0000 C.3     1  UNL1        0.0526
     17 C           7.0846   -1.2951    0.0000 C.ar    1  UNL1       -0.0084
     18 C           5.4666   -1.2951    0.0000 C.2     1  UNL1        0.2306
     19 C           2.0000    0.4855    0.0000 C.3     1  UNL1       -0.0124
     20 C           4.8172    2.4203    0.0000 C.3     1  UNL1       -0.0384
     21 C           6.7756   -2.2461    0.0000 C.ar    1  UNL1        0.0377
     22 C           8.1000   -1.0628    0.0000 C.ar    1  UNL1       -0.0557
     23 C           7.4605   -3.0309    0.0000 C.ar    1  UNL1       -0.0402
     24 C           8.8029   -1.8315    0.0000 C.ar    1  UNL1       -0.0614
     25 C           8.4810   -2.8222    0.0000 C.ar    1  UNL1       -0.0600
     26 H           4.9847   -0.9435    0.0000 H       1  UNL1        0.0337
     27 H           7.0117    1.7177    0.0000 H       1  UNL1        0.0312
     28 H           3.9406    0.5120    0.0000 H       1  UNL1        0.0469
     29 H           4.4638    1.6487    0.0000 H       1  UNL1        0.0341
     30 H           3.8441   -0.7963    0.0000 H       1  UNL1        0.0433
     31 H           4.6998   -0.7533    0.0000 H       1  UNL1        0.0433
     32 H           7.8777    0.2177    0.0000 H       1  UNL1        0.0610
     33 H           7.7522    0.6850    0.0000 H       1  UNL1        0.0293
     34 H           7.3536    1.3753    0.0000 H       1  UNL1        0.0293
     35 H           5.5832    2.3975    0.0000 H       1  UNL1        0.0596
     36 H           4.7857    0.5516    0.0000 H       1  UNL1        0.0563
     37 H           5.1284   -0.1116    0.0000 H       1  UNL1        0.0563
     38 H           1.8852    1.0948    0.0000 H       1  UNL1        0.0391
     39 H           1.3907    0.3707    0.0000 H       1  UNL1        0.0391
     40 H           2.1148   -0.1238    0.0000 H       1  UNL1        0.0391
     41 H           5.2157    2.8952    0.0000 H       1  UNL1        0.0255
     42 H           4.3422    2.8188    0.0000 H       1  UNL1        0.0255
     43 H           4.4186    1.9454    0.0000 H       1  UNL1        0.0255
     44 H           5.4112   -2.7477    0.0000 H       1  UNL1        0.1548
     45 H           6.2416    3.0309    0.0000 H       1  UNL1        0.2098
     46 H           8.2848   -0.4710    0.0000 H       1  UNL1        0.0621
     47 H           7.2622   -3.6183    0.0000 H       1  UNL1        0.0636
     48 H           9.4089   -1.7003    0.0000 H       1  UNL1        0.0618
     49 H           8.8941   -3.2845    0.0000 H       1  UNL1        0.0618
@<TRIPOS>BOND
     1     1    13    1
     2     1    16    1
     3    15     2    1
     4     2    45    1
     5     3    18    2
     6     4     9    1
     7     4    12    1
     8     4    19    1
     9     5    18   am
    10     5    21    1
    11     5    44    1
    12     6     7    1
    13     6     8    1
    14     6    12    1
    15     6    15    1
    16     7     9    1
    17     7    11    1
    18     7    26    1
    19     8    10    1
    20     8    14    1
    21     8    27    1
    22     9    10    1
    23     9    28    1
    24    10    16    1
    25    10    29    1
    26    11    13    1
    27    11    17    1
    28    11    18    1
    29    12    30    1
    30    12    31    1
    31    13    14    1
    32    13    32    1
    33    14    33    1
    34    14    34    1
    35    15    20    1
    36    15    35    1
    37    16    36    1
    38    16    37    1
    39    17    21   ar
    40    17    22   ar
    41    19    38    1
    42    19    39    1
    43    19    40    1
    44    20    41    1
    45    20    42    1
    46    20    43    1
    47    21    23   ar
    48    22    24   ar
    49    22    46    1
    50    23    25   ar
    51    23    47    1
    52    24    25   ar
    53    24    48    1
    54    25    49    1
