@<TRIPOS>MOLECULE
IMPHY001565
 49 49 0 0 0
SMALL
GASTEIGER

@<TRIPOS>ATOM
      1 O           7.7331    1.0000    0.0000 O.2     1  UNL1       -0.2758
      2 O           4.2690    5.0000    0.0000 O.3     1  UNL1       -0.4914
      3 O           2.5369    4.0000    0.0000 O.3     1  UNL1       -0.5033
      4 N           6.0010    1.0000    0.0000 N.am    1  UNL1       -0.3112
      5 C           7.7331   -2.0000    0.0000 C.3     1  UNL1       -0.0492
      6 C           7.7331   -1.0000    0.0000 C.3     1  UNL1       -0.0445
      7 C           8.5991   -2.5000    0.0000 C.3     1  UNL1       -0.0347
      8 C           6.8671   -0.5000    0.0000 C.3     1  UNL1        0.0240
      9 C           9.4651   -5.0000    0.0000 C.3     1  UNL1       -0.0286
     10 C           8.5991   -3.5000    0.0000 C.2     1  UNL1       -0.0877
     11 C           6.8671    0.5000    0.0000 C.2     1  UNL1        0.2133
     12 C           9.4651   -4.0000    0.0000 C.2     1  UNL1       -0.0854
     13 C           6.0010    2.0000    0.0000 C.3     1  UNL1        0.0369
     14 C           5.1350    2.5000    0.0000 C.ar    1  UNL1       -0.0266
     15 C          10.3312   -5.5000    0.0000 C.3     1  UNL1       -0.0592
     16 C           8.5991   -5.5000    0.0000 C.3     1  UNL1       -0.0592
     17 C           5.1350    3.5000    0.0000 C.ar    1  UNL1       -0.0116
     18 C           4.2690    2.0000    0.0000 C.ar    1  UNL1       -0.0534
     19 C           4.2690    4.0000    0.0000 C.ar    1  UNL1        0.1616
     20 C           3.4030    2.5000    0.0000 C.ar    1  UNL1       -0.0162
     21 C           3.4030    3.5000    0.0000 C.ar    1  UNL1        0.1585
     22 C           5.1350    5.5000    0.0000 C.3     1  UNL1        0.0790
     23 H           7.1225   -1.8923    0.0000 H       1  UNL1        0.0268
     24 H           7.5210   -2.5826    0.0000 H       1  UNL1        0.0268
     25 H           8.3437   -1.1077    0.0000 H       1  UNL1        0.0270
     26 H           7.9451   -0.4174    0.0000 H       1  UNL1        0.0270
     27 H           9.2097   -2.6077    0.0000 H       1  UNL1        0.0307
     28 H           8.8112   -1.9174    0.0000 H       1  UNL1        0.0307
     29 H           6.2565   -0.3923    0.0000 H       1  UNL1        0.0358
     30 H           6.6550   -1.0826    0.0000 H       1  UNL1        0.0358
     31 H          10.0021   -4.6900    0.0000 H       1  UNL1        0.0338
     32 H           8.0622   -3.8100    0.0000 H       1  UNL1        0.0569
     33 H          10.0021   -3.6900    0.0000 H       1  UNL1        0.0572
     34 H           6.6116    1.8923    0.0000 H       1  UNL1        0.0512
     35 H           6.2131    2.5826    0.0000 H       1  UNL1        0.0512
     36 H           5.4641    0.6900    0.0000 H       1  UNL1        0.1490
     37 H          10.0212   -6.0369    0.0000 H       1  UNL1        0.0235
     38 H           8.2891   -4.9631    0.0000 H       1  UNL1        0.0235
     39 H           8.0622   -5.8100    0.0000 H       1  UNL1        0.0235
     40 H           8.9091   -6.0369    0.0000 H       1  UNL1        0.0235
     41 H          10.8681   -5.8100    0.0000 H       1  UNL1        0.0235
     42 H          10.6412   -4.9631    0.0000 H       1  UNL1        0.0235
     43 H           5.6720    3.8100    0.0000 H       1  UNL1        0.0658
     44 H           4.2690    1.3800    0.0000 H       1  UNL1        0.0622
     45 H           2.8660    2.1900    0.0000 H       1  UNL1        0.0655
     46 H           2.0000    3.6900    0.0000 H       1  UNL1        0.2923
     47 H           5.4450    4.9631    0.0000 H       1  UNL1        0.0660
     48 H           5.6720    5.8100    0.0000 H       1  UNL1        0.0660
     49 H           4.8250    6.0369    0.0000 H       1  UNL1        0.0660
@<TRIPOS>BOND
     1     1    11    2
     2     2    19    1
     3     2    22    1
     4     3    21    1
     5     3    46    1
     6     4    11   am
     7     4    13    1
     8     4    36    1
     9     5     6    1
    10     5     7    1
    11     5    23    1
    12     5    24    1
    13     6     8    1
    14     6    25    1
    15     6    26    1
    16     7    10    1
    17     7    27    1
    18     7    28    1
    19     8    11    1
    20     8    29    1
    21     8    30    1
    22     9    12    1
    23     9    15    1
    24     9    16    1
    25     9    31    1
    26    10    12    2
    27    10    32    1
    28    12    33    1
    29    13    14    1
    30    13    34    1
    31    13    35    1
    32    14    17   ar
    33    14    18   ar
    34    15    37    1
    35    15    41    1
    36    15    42    1
    37    16    38    1
    38    16    39    1
    39    16    40    1
    40    17    19   ar
    41    17    43    1
    42    18    20   ar
    43    18    44    1
    44    19    21   ar
    45    20    21   ar
    46    20    45    1
    47    22    47    1
    48    22    48    1
    49    22    49    1
