@<TRIPOS>MOLECULE
IMPHY006853
 65 69 0 0 0
SMALL
GASTEIGER

@<TRIPOS>ATOM
      1 O           2.6660    0.1683    0.0000 O.3     1  UNL1       -0.3656
      2 O           2.5369    2.3354    0.0000 O.3     1  UNL1       -0.3888
      3 O           3.7430    4.2371    0.0000 O.3     1  UNL1       -0.3844
      4 O           6.9052    1.8322    0.0000 O.2     1  UNL1       -0.2921
      5 O           6.8671   -1.1646    0.0000 O.3     1  UNL1       -0.4679
      6 O           5.1350   -1.1646    0.0000 O.2     1  UNL1       -0.2509
      7 O           4.4836   -4.6739    0.0000 O.2     1  UNL1       -0.4707
      8 C           4.2690    0.3354    0.0000 C.3     1  UNL1        0.0244
      9 C           5.1350    0.8354    0.0000 C.3     1  UNL1       -0.0065
     10 C           5.1350    1.8354    0.0000 C.3     1  UNL1        0.0425
     11 C           3.4030    0.8354    0.0000 C.3     1  UNL1        0.0950
     12 C           4.2690    2.3354    0.0000 C.3     1  UNL1        0.0323
     13 C           3.4030    1.8354    0.0000 C.3     1  UNL1        0.0888
     14 C           4.0598   -0.6364    0.0000 C.2     1  UNL1       -0.0329
     15 C           3.0711   -0.7395    0.0000 C.3     1  UNL1        0.0819
     16 C           4.2529    3.3769    0.0000 C.3     1  UNL1        0.0879
     17 C           5.1350   -0.1646    0.0000 C.3     1  UNL1       -0.0530
     18 C           6.0010    0.3354    0.0000 C.3     1  UNL1        0.0495
     19 C           2.8673   -1.7064    0.0000 C.3     1  UNL1       -0.0121
     20 C           4.4586   -1.5406    0.0000 C.2     1  UNL1       -0.0628
     21 C           6.0010    1.3354    0.0000 C.3     1  UNL1       -0.0518
     22 C           6.0450    2.3422    0.0000 C.2     1  UNL1        0.1625
     23 C           3.7231   -2.2005    0.0000 C.3     1  UNL1        0.0109
     24 C           5.1510    3.9046    0.0000 C.2     1  UNL1       -0.0494
     25 C           6.0530    3.3838    0.0000 C.2     1  UNL1       -0.0199
     26 C           3.2530    3.3653    0.0000 C.3     1  UNL1       -0.0321
     27 C           5.4362   -1.7510    0.0000 C.3     1  UNL1       -0.0429
     28 C           6.0010   -0.6646    0.0000 C.2     1  UNL1        0.3071
     29 C           3.8267   -3.1952    0.0000 C.ar    1  UNL1       -0.0025
     30 C           3.0830   -3.8636    0.0000 C.ar    1  UNL1       -0.0202
     31 C           4.6923   -3.6959    0.0000 C.ar    1  UNL1        0.0954
     32 C           3.4890   -4.7776    0.0000 C.ar    1  UNL1        0.0920
     33 C           6.8671   -2.1646    0.0000 C.3     1  UNL1        0.0817
     34 H           5.6720    1.1454    0.0000 H       1  UNL1        0.0325
     35 H           2.6260    1.1801    0.0000 H       1  UNL1        0.0631
     36 H           3.5296    2.7547    0.0000 H       1  UNL1        0.0367
     37 H           3.4030    2.4554    0.0000 H       1  UNL1        0.0623
     38 H           2.2258   -0.8294    0.0000 H       1  UNL1        0.0644
     39 H           4.8250   -0.7016    0.0000 H       1  UNL1        0.0239
     40 H           5.6720   -0.4746    0.0000 H       1  UNL1        0.0239
     41 H           5.4450    0.3723    0.0000 H       1  UNL1        0.0239
     42 H           6.6116    0.2277    0.0000 H       1  UNL1        0.0381
     43 H           6.2131    0.9180    0.0000 H       1  UNL1        0.0381
     44 H           2.2774   -1.5155    0.0000 H       1  UNL1        0.0302
     45 H           2.6154   -2.2730    0.0000 H       1  UNL1        0.0302
     46 H           5.6910    0.7984    0.0000 H       1  UNL1        0.0239
     47 H           6.5380    1.0254    0.0000 H       1  UNL1        0.0239
     48 H           6.3110    1.8723    0.0000 H       1  UNL1        0.0239
     49 H           3.2030   -2.5380    0.0000 H       1  UNL1        0.0396
     50 H           5.1486    4.5246    0.0000 H       1  UNL1        0.0601
     51 H           6.5912    3.6917    0.0000 H       1  UNL1        0.0650
     52 H           2.0000    2.0254    0.0000 H       1  UNL1        0.2099
     53 H           3.2458    3.9853    0.0000 H       1  UNL1        0.0260
     54 H           2.6330    3.3581    0.0000 H       1  UNL1        0.0260
     55 H           3.2602    2.7454    0.0000 H       1  UNL1        0.0260
     56 H           5.3057   -2.3572    0.0000 H       1  UNL1        0.0275
     57 H           6.0423   -1.8815    0.0000 H       1  UNL1        0.0275
     58 H           5.5667   -1.1449    0.0000 H       1  UNL1        0.0275
     59 H           4.0467    4.7776    0.0000 H       1  UNL1        0.2106
     60 H           2.4767   -3.7342    0.0000 H       1  UNL1        0.0652
     61 H           5.2589   -3.4442    0.0000 H       1  UNL1        0.1032
     62 H           3.1785   -5.3142    0.0000 H       1  UNL1        0.1029
     63 H           6.2471   -2.1646    0.0000 H       1  UNL1        0.0661
     64 H           6.8671   -2.7846    0.0000 H       1  UNL1        0.0661
     65 H           7.4871   -2.1646    0.0000 H       1  UNL1        0.0661
@<TRIPOS>BOND
     1     1    11    1
     2     1    15    1
     3    13     2    1
     4     2    52    1
     5    16     3    1
     6     3    59    1
     7     4    22    2
     8     5    28    1
     9     5    33    1
    10     6    28    2
    11     7    31   ar
    12     7    32   ar
    13     8     9    1
    14     8    11    1
    15     8    14    1
    16     8    17    1
    17     9    10    1
    18     9    18    1
    19     9    34    1
    20    10    12    1
    21    10    21    1
    22    10    22    1
    23    11    13    1
    24    11    35    1
    25    12    13    1
    26    12    16    1
    27    12    36    1
    28    13    37    1
    29    14    15    1
    30    14    20    2
    31    15    19    1
    32    15    38    1
    33    16    24    1
    34    16    26    1
    35    17    39    1
    36    17    40    1
    37    17    41    1
    38    18    28    1
    39    18    42    1
    40    18    43    1
    41    19    23    1
    42    19    44    1
    43    19    45    1
    44    20    23    1
    45    20    27    1
    46    21    46    1
    47    21    47    1
    48    21    48    1
    49    22    25    1
    50    23    29    1
    51    23    49    1
    52    24    25    2
    53    24    50    1
    54    25    51    1
    55    26    53    1
    56    26    54    1
    57    26    55    1
    58    27    56    1
    59    27    57    1
    60    27    58    1
    61    29    30   ar
    62    29    31   ar
    63    30    32   ar
    64    30    60    1
    65    31    61    1
    66    32    62    1
    67    33    63    1
    68    33    64    1
    69    33    65    1
