@<TRIPOS>MOLECULE
IMPHY017069
 12 11 0 0 0
SMALL
GASTEIGER

@<TRIPOS>ATOM
      1 F           2.0000   -0.8170    0.0000 F       1  UNL1       -0.1662
      2 F           2.3660    0.5490    0.0000 F       1  UNL1       -0.1662
      3 F           3.3660   -1.1830    0.0000 F       1  UNL1       -0.1662
      4 C           3.7320    0.1830    0.0000 C.2     1  UNL1        0.0223
      5 C           2.8660   -0.3170    0.0000 C.3     1  UNL1        0.4130
      6 C           4.5981   -0.3170    0.0000 C.3     1  UNL1       -0.0357
      7 C           3.7320    1.1830    0.0000 C.2     1  UNL1       -0.0913
      8 H           4.2881   -0.8539    0.0000 H       1  UNL1        0.0277
      9 H           5.1350   -0.6270    0.0000 H       1  UNL1        0.0277
     10 H           4.9081    0.2199    0.0000 H       1  UNL1        0.0277
     11 H           4.2690    1.4930    0.0000 H       1  UNL1        0.0537
     12 H           3.1951    1.4930    0.0000 H       1  UNL1        0.0537
@<TRIPOS>BOND
     1     1     5    1
     2     2     5    1
     3     3     5    1
     4     4     5    1
     5     4     6    1
     6     4     7    2
     7     6     8    1
     8     6     9    1
     9     6    10    1
    10     7    11    1
    11     7    12    1
