@<TRIPOS>MOLECULE
IMPHY004664
 28 30 0 0 0
SMALL
GASTEIGER

@<TRIPOS>ATOM
      1 O           8.3780   -1.0612    0.0000 O.3     1  UNL1       -0.4645
      2 O           7.0864   -2.2152    0.0000 O.2     1  UNL1       -0.2450
      3 N           4.5274    1.5952    0.0000 N.ar    1  UNL1       -0.3541
      4 C           5.0274    0.0564    0.0000 C.ar    1  UNL1        0.0082
      5 C           4.0274    0.0564    0.0000 C.ar    1  UNL1        0.0074
      6 C           5.3364    1.0074    0.0000 C.ar    1  UNL1        0.0475
      7 C           3.7183    1.0074    0.0000 C.ar    1  UNL1        0.0475
      8 C           5.7123   -0.7284    0.0000 C.ar    1  UNL1       -0.0380
      9 C           6.3518    1.2397    0.0000 C.ar    1  UNL1       -0.0370
     10 C           3.3424   -0.7284    0.0000 C.ar    1  UNL1       -0.0520
     11 C           6.7328   -0.5196    0.0000 C.ar    1  UNL1        0.0597
     12 C           2.7029    1.2397    0.0000 C.ar    1  UNL1       -0.0378
     13 C           7.0547    0.4710    0.0000 C.ar    1  UNL1       -0.0458
     14 C           2.3219   -0.5196    0.0000 C.ar    1  UNL1       -0.0611
     15 C           2.0000    0.4710    0.0000 C.ar    1  UNL1       -0.0598
     16 C           7.3991   -1.2654    0.0000 C.2     1  UNL1        0.3389
     17 C           9.0443   -1.8069    0.0000 C.3     1  UNL1        0.0820
     18 H           4.5274    2.2152    0.0000 H       1  UNL1        0.1659
     19 H           5.5139   -1.3158    0.0000 H       1  UNL1        0.0632
     20 H           6.5365    1.8315    0.0000 H       1  UNL1        0.0638
     21 H           3.5408   -1.3158    0.0000 H       1  UNL1        0.0624
     22 H           2.5182    1.8315    0.0000 H       1  UNL1        0.0638
     23 H           7.6607    0.6022    0.0000 H       1  UNL1        0.0626
     24 H           1.9088   -0.9820    0.0000 H       1  UNL1        0.0618
     25 H           1.3940    0.6022    0.0000 H       1  UNL1        0.0618
     26 H           8.5820   -2.2200    0.0000 H       1  UNL1        0.0661
     27 H           9.4574   -2.2693    0.0000 H       1  UNL1        0.0661
     28 H           9.5066   -1.3939    0.0000 H       1  UNL1        0.0661
@<TRIPOS>BOND
     1     1    16    1
     2     1    17    1
     3     2    16    2
     4     3     6   ar
     5     3     7   ar
     6     3    18    1
     7     4     5   ar
     8     4     6   ar
     9     4     8   ar
    10     5     7   ar
    11     5    10   ar
    12     6     9   ar
    13     7    12   ar
    14     8    11   ar
    15     8    19    1
    16     9    13   ar
    17     9    20    1
    18    10    14   ar
    19    10    21    1
    20    11    13   ar
    21    11    16    1
    22    12    15   ar
    23    12    22    1
    24    13    23    1
    25    14    15   ar
    26    14    24    1
    27    15    25    1
    28    17    26    1
    29    17    27    1
    30    17    28    1
