@<TRIPOS>MOLECULE
IMPHY002201
 74 79 0 0 0
SMALL
GASTEIGER

@<TRIPOS>ATOM
      1 O           4.5611   -1.5407    0.0000 O.3     1  UNL1       -0.3815
      2 O           4.1199   -0.7026    0.0000 O.3     1  UNL1       -0.3731
      3 O           5.6374   -1.8714    0.0000 O.3     1  UNL1       -0.3885
      4 O           3.7432    1.4645    0.0000 O.3     1  UNL1       -0.3790
      5 O           7.4601    1.8904    0.0000 O.3     1  UNL1       -0.3912
      6 O           3.3424    2.3483    0.0000 O.3     1  UNL1       -0.3793
      7 O           8.3261   -2.3448    0.0000 O.3     1  UNL1       -0.3824
      8 N           8.6554    0.0613    0.0000 N.3     1  UNL1       -0.2955
      9 C           6.7088    0.4566    0.0000 C.3     1  UNL1        0.0242
     10 C           6.7088   -0.4110    0.0000 C.3     1  UNL1        0.0066
     11 C           6.0305    0.9975    0.0000 C.3     1  UNL1       -0.0228
     12 C           7.7107    0.3505    0.0000 C.3     1  UNL1        0.0529
     13 C           5.1846   -0.7589    0.0000 C.3     1  UNL1        0.1371
     14 C           5.1846    0.8044    0.0000 C.3     1  UNL1        0.0211
     15 C           4.8082    0.0228    0.0000 C.3     1  UNL1        0.1094
     16 C           6.0305   -0.9519    0.0000 C.3     1  UNL1        0.0922
     17 C           7.4601   -0.8448    0.0000 C.3     1  UNL1        0.0128
     18 C           7.4601    0.8904    0.0000 C.3     1  UNL1        0.0630
     19 C           6.1082    1.8616    0.0000 C.3     1  UNL1       -0.0416
     20 C           5.3105    2.2026    0.0000 C.3     1  UNL1        0.0123
     21 C           4.7396    1.5492    0.0000 C.3     1  UNL1        0.0693
     22 C           4.1633    0.2927    0.0000 C.3     1  UNL1        0.0062
     23 C           8.6554   -0.6906    0.0000 C.3     1  UNL1        0.0074
     24 C           8.2114   -0.4110    0.0000 C.3     1  UNL1       -0.0414
     25 C           4.1633    1.7772    0.0000 C.3     1  UNL1        0.0662
     26 C           8.2114    0.4566    0.0000 C.3     1  UNL1       -0.0256
     27 C           7.4601   -1.8448    0.0000 C.3     1  UNL1        0.0544
     28 C           9.4594    0.6560    0.0000 C.3     1  UNL1       -0.0035
     29 C           3.1475   -0.4692    0.0000 C.3     1  UNL1        0.0373
     30 C          10.3764    0.2571    0.0000 C.3     1  UNL1       -0.0523
     31 C           3.3184    0.5593    0.0000 C.3     1  UNL1        0.0368
     32 C           3.4266    3.3448    0.0000 C.3     1  UNL1        0.0368
     33 C           8.3261   -3.3448    0.0000 C.3     1  UNL1        0.0365
     34 H           6.7723   -1.2586    0.0000 H       1  UNL1        0.0340
     35 H           6.8120    1.3316    0.0000 H       1  UNL1        0.0312
     36 H           8.1552    1.0750    0.0000 H       1  UNL1        0.0499
     37 H           4.3355    0.7663    0.0000 H       1  UNL1        0.0358
     38 H           6.2309   -1.5386    0.0000 H       1  UNL1        0.0627
     39 H           6.9232    1.2004    0.0000 H       1  UNL1        0.0599
     40 H           6.2910    2.4540    0.0000 H       1  UNL1        0.0272
     41 H           6.7165    1.7418    0.0000 H       1  UNL1        0.0272
     42 H           5.3312    3.0523    0.0000 H       1  UNL1        0.0351
     43 H           4.4596    2.1023    0.0000 H       1  UNL1        0.0603
     44 H           4.0014   -0.3058    0.0000 H       1  UNL1        0.0319
     45 H           3.5487    0.3744    0.0000 H       1  UNL1        0.0319
     46 H           9.2749   -0.6640    0.0000 H       1  UNL1        0.0433
     47 H           8.7084   -1.3083    0.0000 H       1  UNL1        0.0433
     48 H           8.8220   -0.3033    0.0000 H       1  UNL1        0.0273
     49 H           8.4235   -0.9936    0.0000 H       1  UNL1        0.0273
     50 H           4.2415    2.3923    0.0000 H       1  UNL1        0.0600
     51 H           8.4235    1.0392    0.0000 H       1  UNL1        0.0290
     52 H           8.8220    0.3489    0.0000 H       1  UNL1        0.0290
     53 H           7.2480   -2.4274    0.0000 H       1  UNL1        0.0566
     54 H           6.8495   -1.7371    0.0000 H       1  UNL1        0.0566
     55 H           4.7876   -2.1178    0.0000 H       1  UNL1        0.2105
     56 H           9.0097    1.0829    0.0000 H       1  UNL1        0.0424
     57 H           9.8017    1.1730    0.0000 H       1  UNL1        0.0424
     58 H           6.0093   -2.3675    0.0000 H       1  UNL1        0.2099
     59 H           7.9970    2.2004    0.0000 H       1  UNL1        0.2098
     60 H           3.0028   -1.0721    0.0000 H       1  UNL1        0.0524
     61 H           2.5446   -0.3245    0.0000 H       1  UNL1        0.0524
     62 H           3.2922    0.1337    0.0000 H       1  UNL1        0.0524
     63 H          10.6237    0.8256    0.0000 H       1  UNL1        0.0242
     64 H          10.9449    0.0098    0.0000 H       1  UNL1        0.0242
     65 H          10.1291   -0.3114    0.0000 H       1  UNL1        0.0242
     66 H           3.8796    0.2959    0.0000 H       1  UNL1        0.0524
     67 H           3.0549   -0.0020    0.0000 H       1  UNL1        0.0524
     68 H           2.7571    0.8227    0.0000 H       1  UNL1        0.0524
     69 H           2.8088    3.3970    0.0000 H       1  UNL1        0.0524
     70 H           3.4788    3.9626    0.0000 H       1  UNL1        0.0524
     71 H           4.0444    3.2926    0.0000 H       1  UNL1        0.0524
     72 H           8.9461   -3.3448    0.0000 H       1  UNL1        0.0523
     73 H           8.3261   -3.9648    0.0000 H       1  UNL1        0.0523
     74 H           7.7061   -3.3448    0.0000 H       1  UNL1        0.0523
@<TRIPOS>BOND
     1    13     1    1
     2     1    55    1
     3    15     2    1
     4     2    29    1
     5    16     3    1
     6     3    58    1
     7    21     4    1
     8     4    31    1
     9    18     5    1
    10     5    59    1
    11    25     6    1
    12     6    32    1
    13     7    27    1
    14     7    33    1
    15     8    12    1
    16     8    23    1
    17     8    28    1
    18     9    10    1
    19     9    11    1
    20     9    12    1
    21     9    18    1
    22    10    16    1
    23    10    17    1
    24    10    34    1
    25    11    14    1
    26    11    19    1
    27    11    35    1
    28    12    13    1
    29    12    36    1
    30    13    15    1
    31    13    16    1
    32    14    15    1
    33    14    21    1
    34    14    37    1
    35    15    22    1
    36    16    38    1
    37    17    23    1
    38    17    24    1
    39    17    27    1
    40    18    26    1
    41    18    39    1
    42    19    20    1
    43    19    40    1
    44    19    41    1
    45    20    21    1
    46    20    25    1
    47    20    42    1
    48    21    43    1
    49    22    25    1
    50    22    44    1
    51    22    45    1
    52    23    46    1
    53    23    47    1
    54    24    26    1
    55    24    48    1
    56    24    49    1
    57    25    50    1
    58    26    51    1
    59    26    52    1
    60    27    53    1
    61    27    54    1
    62    28    30    1
    63    28    56    1
    64    28    57    1
    65    29    60    1
    66    29    61    1
    67    29    62    1
    68    30    63    1
    69    30    64    1
    70    30    65    1
    71    31    66    1
    72    31    67    1
    73    31    68    1
    74    32    69    1
    75    32    70    1
    76    32    71    1
    77    33    72    1
    78    33    73    1
    79    33    74    1
