@<TRIPOS>MOLECULE
IMPHY011448
 53 58 0 0 0
SMALL
GASTEIGER

@<TRIPOS>ATOM
      1 O           7.7505    0.2054    0.0000 O.3     1  UNL1       -0.3523
      2 O           5.4328   -2.1436    0.0000 O.3     1  UNL1       -0.4675
      3 O           4.7256   -0.5625    0.0000 O.2     1  UNL1       -0.2501
      4 N           8.6733   -1.1368    0.0000 N.3     1  UNL1       -0.2911
      5 N           6.6388    1.7429    0.0000 N.pl3   1  UNL1       -0.3030
      6 C           6.1388    0.2041    0.0000 C.3     1  UNL1        0.0643
      7 C           6.9478    0.7918    0.0000 C.3     1  UNL1        0.1625
      8 C           6.4484   -0.7406    0.0000 C.3     1  UNL1        0.1113
      9 C           8.4117    0.3654    0.0000 C.3     1  UNL1        0.0581
     10 C          10.2282    0.4272    0.0000 C.3     1  UNL1        0.0017
     11 C           9.3040    0.8662    0.0000 C.3     1  UNL1       -0.0253
     12 C           6.0920   -1.3200    0.0000 C.3     1  UNL1       -0.0250
     13 C           7.4425   -0.7397    0.0000 C.3     1  UNL1        0.0676
     14 C           5.3298    0.7918    0.0000 C.ar    1  UNL1       -0.0145
     15 C           7.4398   -2.0330    0.0000 C.3     1  UNL1        0.0006
     16 C          10.4037   -0.5808    0.0000 C.2     1  UNL1       -0.0555
     17 C           9.6823   -1.3064    0.0000 C.3     1  UNL1        0.0208
     18 C           5.6388    1.7429    0.0000 C.ar    1  UNL1        0.0355
     19 C           5.5356   -1.1489    0.0000 C.2     1  UNL1        0.3169
     20 C           7.2266    2.5519    0.0000 C.3     1  UNL1        0.0033
     21 C           4.3144    0.5596    0.0000 C.ar    1  UNL1       -0.0561
     22 C           4.9538    2.5276    0.0000 C.ar    1  UNL1       -0.0403
     23 C          11.3575   -0.8811    0.0000 C.2     1  UNL1       -0.0864
     24 C           3.6114    1.3283    0.0000 C.ar    1  UNL1       -0.0614
     25 C           3.9333    2.3189    0.0000 C.ar    1  UNL1       -0.0600
     26 C          12.0945   -0.2052    0.0000 C.3     1  UNL1       -0.0465
     27 C           4.5200   -2.5519    0.0000 C.3     1  UNL1        0.0817
     28 H           8.2659    1.2028    0.0000 H       1  UNL1        0.0508
     29 H          10.9049    0.9415    0.0000 H       1  UNL1        0.0358
     30 H           8.8967    1.3336    0.0000 H       1  UNL1        0.0288
     31 H           9.6786    1.3602    0.0000 H       1  UNL1        0.0288
     32 H           5.8884   -1.9056    0.0000 H       1  UNL1        0.0288
     33 H           5.4823   -1.2074    0.0000 H       1  UNL1        0.0288
     34 H           8.0490   -0.8688    0.0000 H       1  UNL1        0.0572
     35 H           7.3779   -1.3563    0.0000 H       1  UNL1        0.0572
     36 H           7.8760   -2.4736    0.0000 H       1  UNL1        0.0427
     37 H           7.0703   -2.5308    0.0000 H       1  UNL1        0.0427
     38 H          10.2019   -1.6447    0.0000 H       1  UNL1        0.0473
     39 H           9.4570   -1.8840    0.0000 H       1  UNL1        0.0473
     40 H           6.7250    2.9163    0.0000 H       1  UNL1        0.0429
     41 H           7.5910    3.0535    0.0000 H       1  UNL1        0.0429
     42 H           7.7282    2.1875    0.0000 H       1  UNL1        0.0429
     43 H           4.1296   -0.0322    0.0000 H       1  UNL1        0.0621
     44 H           5.1522    3.1150    0.0000 H       1  UNL1        0.0636
     45 H          11.4920   -1.4864    0.0000 H       1  UNL1        0.0569
     46 H           3.0055    1.1970    0.0000 H       1  UNL1        0.0618
     47 H           3.5202    2.7813    0.0000 H       1  UNL1        0.0618
     48 H          11.6755    0.2517    0.0000 H       1  UNL1        0.0272
     49 H          12.5515    0.2138    0.0000 H       1  UNL1        0.0272
     50 H          12.5136   -0.6622    0.0000 H       1  UNL1        0.0272
     51 H           4.7731   -3.1179    0.0000 H       1  UNL1        0.0661
     52 H           3.9540   -2.8051    0.0000 H       1  UNL1        0.0661
     53 H           4.2668   -1.9860    0.0000 H       1  UNL1        0.0661
@<TRIPOS>BOND
     1     1     7    1
     2     1    13    1
     3     2    19    1
     4     2    27    1
     5     3    19    2
     6     4     9    1
     7     4    15    1
     8     4    17    1
     9     7     5    1
    10     5    18    1
    11     5    20    1
    12     6     7    1
    13     6     8    1
    14     6    12    1
    15     6    14    1
    16     7     9    1
    17     8    10    1
    18     8    13    1
    19     8    19    1
    20     9    11    1
    21     9    28    1
    22    10    11    1
    23    10    16    1
    24    10    29    1
    25    11    30    1
    26    11    31    1
    27    12    15    1
    28    12    32    1
    29    12    33    1
    30    13    34    1
    31    13    35    1
    32    14    18   ar
    33    14    21   ar
    34    15    36    1
    35    15    37    1
    36    16    17    1
    37    16    23    2
    38    17    38    1
    39    17    39    1
    40    18    22   ar
    41    20    40    1
    42    20    41    1
    43    20    42    1
    44    21    24   ar
    45    21    43    1
    46    22    25   ar
    47    22    44    1
    48    23    26    1
    49    23    45    1
    50    24    25   ar
    51    24    46    1
    52    25    47    1
    53    26    48    1
    54    26    49    1
    55    26    50    1
    56    27    51    1
    57    27    52    1
    58    27    53    1
