@<TRIPOS>MOLECULE
IMPHY005650
 99 104 0 0 0
SMALL
GASTEIGER

@<TRIPOS>ATOM
      1 O           8.6036   -2.9376    0.0000 O.3     1  UNL1       -0.4577
      2 O          17.5287    0.1489    0.0000 O.3     1  UNL1       -0.4802
      3 O          16.6743   -1.3577    0.0000 O.2     1  UNL1       -0.2504
      4 O          16.6454    3.8009    0.0000 O.3     1  UNL1       -0.3947
      5 O           7.7434   -1.4343    0.0000 O.2     1  UNL1       -0.2456
      6 O           2.5357   -4.4142    0.0000 O.3     1  UNL1       -0.5068
      7 C          13.1307   -1.3853    0.0000 C.3     1  UNL1       -0.0194
      8 C          12.2647   -0.8853    0.0000 C.3     1  UNL1       -0.0257
      9 C          11.3547   -1.3921    0.0000 C.3     1  UNL1       -0.0249
     10 C          13.9967   -0.8853    0.0000 C.3     1  UNL1       -0.0051
     11 C          11.3467   -2.4337    0.0000 C.3     1  UNL1       -0.0268
     12 C          13.1468   -2.4268    0.0000 C.3     1  UNL1       -0.0463
     13 C          13.9967    0.1147    0.0000 C.2     1  UNL1       -0.0626
     14 C          12.2487   -2.9545    0.0000 C.3     1  UNL1       -0.0486
     15 C          10.4112   -2.9834    0.0000 C.3     1  UNL1        0.0055
     16 C          14.8907    0.6494    0.0000 C.3     1  UNL1       -0.0007
     17 C          12.2647    0.1147    0.0000 C.3     1  UNL1       -0.0306
     18 C          14.8907   -1.4199    0.0000 C.3     1  UNL1       -0.0424
     19 C          10.4278   -0.8280    0.0000 C.3     1  UNL1       -0.0437
     20 C          15.7967    0.1356    0.0000 C.3     1  UNL1        0.0743
     21 C          13.7735   -2.1513    0.0000 C.3     1  UNL1       -0.0585
     22 C          15.7967   -0.9061    0.0000 C.3     1  UNL1       -0.0359
     23 C           9.4716   -2.4409    0.0000 C.3     1  UNL1        0.1087
     24 C          13.1307    0.6147    0.0000 C.2     1  UNL1       -0.0836
     25 C          11.3624   -0.3921    0.0000 C.3     1  UNL1       -0.0590
     26 C           9.4800   -1.3560    0.0000 C.3     1  UNL1       -0.0146
     27 C          14.3389   -1.8249    0.0000 C.3     1  UNL1       -0.0553
     28 C          14.8656    1.7341    0.0000 C.3     1  UNL1       -0.0314
     29 C          16.7405    0.6708    0.0000 C.3     1  UNL1       -0.0363
     30 C          15.7967    2.2910    0.0000 C.3     1  UNL1       -0.0146
     31 C           9.9146   -3.8514    0.0000 C.3     1  UNL1       -0.0562
     32 C          10.9146   -3.8475    0.0000 C.3     1  UNL1       -0.0562
     33 C          16.7405    1.7558    0.0000 C.3     1  UNL1       -0.0468
     34 C          16.6666   -0.3578    0.0000 C.2     1  UNL1        0.3115
     35 C          13.9901    2.2173    0.0000 C.3     1  UNL1       -0.0615
     36 C          15.7852    3.2910    0.0000 C.3     1  UNL1        0.0473
     37 C           7.7396   -2.4343    0.0000 C.2     1  UNL1        0.3322
     38 C           6.8716   -2.9309    0.0000 C.2     1  UNL1        0.0231
     39 C           6.0075   -2.4276    0.0000 C.2     1  UNL1       -0.0478
     40 C           5.1396   -2.9242    0.0000 C.ar    1  UNL1       -0.0246
     41 C           4.2755   -2.4209    0.0000 C.ar    1  UNL1       -0.0511
     42 C           5.1357   -3.9242    0.0000 C.ar    1  UNL1       -0.0511
     43 C           3.4075   -2.9176    0.0000 C.ar    1  UNL1       -0.0196
     44 C           4.2678   -4.4209    0.0000 C.ar    1  UNL1       -0.0196
     45 C           3.4037   -3.9176    0.0000 C.ar    1  UNL1        0.1169
     46 H          13.0008   -0.4603    0.0000 H       1  UNL1        0.0315
     47 H          11.3499   -3.2837    0.0000 H       1  UNL1        0.0312
     48 H          13.3648   -3.0072    0.0000 H       1  UNL1        0.0271
     49 H          13.7559   -2.3113    0.0000 H       1  UNL1        0.0271
     50 H          11.8514   -3.4305    0.0000 H       1  UNL1        0.0268
     51 H          12.6497   -3.4274    0.0000 H       1  UNL1        0.0268
     52 H          14.1465    1.0601    0.0000 H       1  UNL1        0.0359
     53 H          12.0526    0.6973    0.0000 H       1  UNL1        0.0310
     54 H          11.6541    0.0071    0.0000 H       1  UNL1        0.0310
     55 H          14.4861   -1.8897    0.0000 H       1  UNL1        0.0274
     56 H          15.2843   -1.8989    0.0000 H       1  UNL1        0.0274
     57 H          10.8361   -0.3614    0.0000 H       1  UNL1        0.0272
     58 H          10.0379   -0.3460    0.0000 H       1  UNL1        0.0272
     59 H          13.2985   -2.5498    0.0000 H       1  UNL1        0.0235
     60 H          14.1720   -2.6263    0.0000 H       1  UNL1        0.0235
     61 H          14.2484   -1.7528    0.0000 H       1  UNL1        0.0235
     62 H          16.0058   -1.4898    0.0000 H       1  UNL1        0.0276
     63 H          16.4076   -0.8000    0.0000 H       1  UNL1        0.0276
     64 H           9.4704   -3.0609    0.0000 H       1  UNL1        0.0739
     65 H          13.1307    1.2347    0.0000 H       1  UNL1        0.0572
     66 H          11.9824   -0.3969    0.0000 H       1  UNL1        0.0235
     67 H          11.3672    0.2278    0.0000 H       1  UNL1        0.0235
     68 H          10.7424   -0.3874    0.0000 H       1  UNL1        0.0235
     69 H           9.2754   -0.7707    0.0000 H       1  UNL1        0.0301
     70 H           8.8683   -1.4574    0.0000 H       1  UNL1        0.0301
     71 H          14.8548    2.3540    0.0000 H       1  UNL1        0.0308
     72 H          13.7563   -2.0370    0.0000 H       1  UNL1        0.0238
     73 H          14.5510   -2.4075    0.0000 H       1  UNL1        0.0238
     74 H          14.9214   -1.6128    0.0000 H       1  UNL1        0.0238
     75 H          16.9496    0.0871    0.0000 H       1  UNL1        0.0276
     76 H          17.3514    0.7769    0.0000 H       1  UNL1        0.0276
     77 H          15.2557    2.5938    0.0000 H       1  UNL1        0.0326
     78 H           9.3764   -3.5434    0.0000 H       1  UNL1        0.0236
     79 H           9.6066   -4.3895    0.0000 H       1  UNL1        0.0236
     80 H          10.4527   -4.1593    0.0000 H       1  UNL1        0.0236
     81 H          10.3788   -4.1596    0.0000 H       1  UNL1        0.0236
     82 H          11.2266   -4.3833    0.0000 H       1  UNL1        0.0236
     83 H          11.4503   -3.5355    0.0000 H       1  UNL1        0.0236
     84 H          17.3514    1.6497    0.0000 H       1  UNL1        0.0269
     85 H          16.9496    2.3395    0.0000 H       1  UNL1        0.0269
     86 H          14.2897    2.7601    0.0000 H       1  UNL1        0.0233
     87 H          13.4473    2.5169    0.0000 H       1  UNL1        0.0233
     88 H          13.6905    1.6745    0.0000 H       1  UNL1        0.0233
     89 H          15.5664    3.8711    0.0000 H       1  UNL1        0.0560
     90 H          15.1759    3.1762    0.0000 H       1  UNL1        0.0560
     91 H          18.0681   -0.1569    0.0000 H       1  UNL1        0.2951
     92 H          16.6382    4.4209    0.0000 H       1  UNL1        0.2094
     93 H           6.8692   -3.5509    0.0000 H       1  UNL1        0.0689
     94 H           6.0099   -1.8076    0.0000 H       1  UNL1        0.0626
     95 H           4.2779   -1.8009    0.0000 H       1  UNL1        0.0625
     96 H           5.6715   -4.2363    0.0000 H       1  UNL1        0.0625
     97 H           2.8718   -2.6055    0.0000 H       1  UNL1        0.0654
     98 H           4.2654   -5.0409    0.0000 H       1  UNL1        0.0654
     99 H           2.0000   -4.1022    0.0000 H       1  UNL1        0.2921
@<TRIPOS>BOND
     1    23     1    1
     2     1    37    1
     3     2    34    1
     4     2    91    1
     5     3    34    2
     6     4    36    1
     7     4    92    1
     8     5    37    2
     9     6    45    1
    10     6    99    1
    11     7     8    1
    12     7    10    1
    13     7    12    1
    14     7    21    1
    15     8     9    1
    16     8    17    1
    17     8    46    1
    18     9    11    1
    19     9    19    1
    20     9    25    1
    21    10    13    1
    22    10    18    1
    23    10    27    1
    24    11    14    1
    25    11    15    1
    26    11    47    1
    27    12    14    1
    28    12    48    1
    29    12    49    1
    30    13    16    1
    31    13    24    2
    32    14    50    1
    33    14    51    1
    34    15    23    1
    35    15    31    1
    36    15    32    1
    37    16    20    1
    38    16    28    1
    39    16    52    1
    40    17    24    1
    41    17    53    1
    42    17    54    1
    43    18    22    1
    44    18    55    1
    45    18    56    1
    46    19    26    1
    47    19    57    1
    48    19    58    1
    49    20    22    1
    50    20    29    1
    51    20    34    1
    52    21    59    1
    53    21    60    1
    54    21    61    1
    55    22    62    1
    56    22    63    1
    57    23    26    1
    58    23    64    1
    59    24    65    1
    60    25    66    1
    61    25    67    1
    62    25    68    1
    63    26    69    1
    64    26    70    1
    65    27    72    1
    66    27    73    1
    67    27    74    1
    68    28    30    1
    69    28    35    1
    70    28    71    1
    71    29    33    1
    72    29    75    1
    73    29    76    1
    74    30    33    1
    75    30    36    1
    76    30    77    1
    77    31    78    1
    78    31    79    1
    79    31    80    1
    80    32    81    1
    81    32    82    1
    82    32    83    1
    83    33    84    1
    84    33    85    1
    85    35    86    1
    86    35    87    1
    87    35    88    1
    88    36    89    1
    89    36    90    1
    90    37    38    1
    91    38    39    2
    92    38    93    1
    93    39    40    1
    94    39    94    1
    95    40    41   ar
    96    40    42   ar
    97    41    43   ar
    98    41    95    1
    99    42    44   ar
   100    42    96    1
   101    43    45   ar
   102    43    97    1
   103    44    45   ar
   104    44    98    1
