@<TRIPOS>MOLECULE
IMPHY001761
 35 35 0 0 0
SMALL
GASTEIGER

@<TRIPOS>ATOM
      1 O           2.8660    1.5280    0.0000 O.3     1  UNL1       -0.4915
      2 O           4.5981    2.5280    0.0000 O.3     1  UNL1       -0.5033
      3 N           7.1962   -1.9720    0.0000 N.4     1  UNL1        0.2371
      4 C           6.3301   -1.4720    0.0000 C.3     1  UNL1       -0.0268
      5 C           6.3301   -0.4720    0.0000 C.3     1  UNL1        0.0129
      6 C           8.0622   -2.4720    0.0000 C.3     1  UNL1       -0.0418
      7 C           6.6962   -2.8380    0.0000 C.3     1  UNL1       -0.0418
      8 C           7.6962   -1.1060    0.0000 C.3     1  UNL1       -0.0418
      9 C           5.4641    0.0280    0.0000 C.ar    1  UNL1       -0.0387
     10 C           5.4641    1.0280    0.0000 C.ar    1  UNL1       -0.0132
     11 C           4.5981   -0.4720    0.0000 C.ar    1  UNL1       -0.0547
     12 C           4.5981    1.5280    0.0000 C.ar    1  UNL1        0.1587
     13 C           3.7320    0.0280    0.0000 C.ar    1  UNL1       -0.0160
     14 C           3.7320    1.0280    0.0000 C.ar    1  UNL1        0.1613
     15 C           2.0000    1.0280    0.0000 C.3     1  UNL1        0.0790
     16 H           5.7196   -1.3643    0.0000 H       1  UNL1        0.0818
     17 H           6.1181   -2.0546    0.0000 H       1  UNL1        0.0818
     18 H           6.9407   -0.5796    0.0000 H       1  UNL1        0.0365
     19 H           6.5422    0.1106    0.0000 H       1  UNL1        0.0365
     20 H           7.7522   -3.0089    0.0000 H       1  UNL1        0.0778
     21 H           8.5991   -2.7820    0.0000 H       1  UNL1        0.0778
     22 H           8.3722   -1.9350    0.0000 H       1  UNL1        0.0778
     23 H           6.1592   -2.5280    0.0000 H       1  UNL1        0.0778
     24 H           6.3862   -3.3750    0.0000 H       1  UNL1        0.0778
     25 H           7.2331   -3.1480    0.0000 H       1  UNL1        0.0778
     26 H           8.2331   -1.4160    0.0000 H       1  UNL1        0.0778
     27 H           8.0062   -0.5690    0.0000 H       1  UNL1        0.0778
     28 H           7.1592   -0.7960    0.0000 H       1  UNL1        0.0778
     29 H           6.0010    1.3380    0.0000 H       1  UNL1        0.0658
     30 H           4.5981   -1.0920    0.0000 H       1  UNL1        0.0621
     31 H           3.1951   -0.2820    0.0000 H       1  UNL1        0.0655
     32 H           5.1350    2.8380    0.0000 H       1  UNL1        0.2923
     33 H           1.6900    1.5650    0.0000 H       1  UNL1        0.0660
     34 H           1.4631    0.7180    0.0000 H       1  UNL1        0.0660
     35 H           2.3100    0.4911    0.0000 H       1  UNL1        0.0660
@<TRIPOS>UNITY_ATOM_ATTR
3 1
charge 1
@<TRIPOS>BOND
     1     1    14    1
     2     1    15    1
     3     2    12    1
     4     2    32    1
     5     3     4    1
     6     3     6    1
     7     3     7    1
     8     3     8    1
     9     4     5    1
    10     4    16    1
    11     4    17    1
    12     5     9    1
    13     5    18    1
    14     5    19    1
    15     6    20    1
    16     6    21    1
    17     6    22    1
    18     7    23    1
    19     7    24    1
    20     7    25    1
    21     8    26    1
    22     8    27    1
    23     8    28    1
    24     9    10   ar
    25     9    11   ar
    26    10    12   ar
    27    10    29    1
    28    11    13   ar
    29    11    30    1
    30    12    14   ar
    31    13    14   ar
    32    13    31    1
    33    15    33    1
    34    15    34    1
    35    15    35    1
