@<TRIPOS>MOLECULE
IMPHY017542
 32 32 0 0 0
SMALL
GASTEIGER

@<TRIPOS>ATOM
      1 O           2.5369    0.5670    0.0000 O.3     1  UNL1       -0.3947
      2 C           6.0010    0.5670    0.0000 C.3     1  UNL1       -0.0136
      3 C           6.8671    0.0670    0.0000 C.3     1  UNL1       -0.0439
      4 C           5.1350    0.0670    0.0000 C.2     1  UNL1       -0.0628
      5 C           6.8671   -0.9330    0.0000 C.3     1  UNL1       -0.0486
      6 C           6.0010   -1.4330    0.0000 C.3     1  UNL1       -0.0317
      7 C           5.1350   -0.9330    0.0000 C.2     1  UNL1       -0.0728
      8 C           6.5010    1.4330    0.0000 C.3     1  UNL1       -0.0561
      9 C           5.5010    1.4330    0.0000 C.3     1  UNL1       -0.0561
     10 C           4.2690    0.5670    0.0000 C.3     1  UNL1       -0.0077
     11 C           4.2690   -1.4330    0.0000 C.3     1  UNL1       -0.0435
     12 C           3.4030    0.0670    0.0000 C.3     1  UNL1        0.0479
     13 H           7.4776   -0.0407    0.0000 H       1  UNL1        0.0274
     14 H           7.0791    0.6496    0.0000 H       1  UNL1        0.0274
     15 H           7.0791   -1.5156    0.0000 H       1  UNL1        0.0269
     16 H           7.4776   -0.8254    0.0000 H       1  UNL1        0.0269
     17 H           5.6025   -1.9080    0.0000 H       1  UNL1        0.0310
     18 H           6.3996   -1.9080    0.0000 H       1  UNL1        0.0310
     19 H           7.0380    1.1230    0.0000 H       1  UNL1        0.0238
     20 H           6.8110    1.9700    0.0000 H       1  UNL1        0.0238
     21 H           5.9641    1.7430    0.0000 H       1  UNL1        0.0238
     22 H           6.0380    1.7430    0.0000 H       1  UNL1        0.0238
     23 H           5.1910    1.9700    0.0000 H       1  UNL1        0.0238
     24 H           4.9641    1.1230    0.0000 H       1  UNL1        0.0238
     25 H           4.6675    1.0419    0.0000 H       1  UNL1        0.0332
     26 H           3.8705    1.0419    0.0000 H       1  UNL1        0.0332
     27 H           3.9590   -0.8961    0.0000 H       1  UNL1        0.0274
     28 H           3.7320   -1.7430    0.0000 H       1  UNL1        0.0274
     29 H           4.5790   -1.9700    0.0000 H       1  UNL1        0.0274
     30 H           3.0044   -0.4080    0.0000 H       1  UNL1        0.0560
     31 H           3.8015   -0.4080    0.0000 H       1  UNL1        0.0560
     32 H           2.0000    0.2570    0.0000 H       1  UNL1        0.2094
@<TRIPOS>BOND
     1     1    12    1
     2     1    32    1
     3     2     3    1
     4     2     4    1
     5     2     8    1
     6     2     9    1
     7     3     5    1
     8     3    13    1
     9     3    14    1
    10     4     7    2
    11     4    10    1
    12     5     6    1
    13     5    15    1
    14     5    16    1
    15     6     7    1
    16     6    17    1
    17     6    18    1
    18     7    11    1
    19     8    19    1
    20     8    20    1
    21     8    21    1
    22     9    22    1
    23     9    23    1
    24     9    24    1
    25    10    12    1
    26    10    25    1
    27    10    26    1
    28    11    27    1
    29    11    28    1
    30    11    29    1
    31    12    30    1
    32    12    31    1
