@<TRIPOS>MOLECULE
IMPHY002239
 82 86 0 0 0
SMALL
GASTEIGER

@<TRIPOS>ATOM
      1 O           2.5357   -2.8693    0.0000 O.3     1  UNL1       -0.3912
      2 O          11.2187    3.2426    0.0000 O.3     1  UNL1       -0.3945
      3 C           7.0628   -1.3170    0.0000 C.3     1  UNL1       -0.0194
      4 C           6.1968   -0.8170    0.0000 C.3     1  UNL1       -0.0257
      5 C           5.2868   -1.3238    0.0000 C.3     1  UNL1       -0.0250
      6 C           7.9288   -0.8170    0.0000 C.3     1  UNL1       -0.0051
      7 C           5.2787   -2.3654    0.0000 C.3     1  UNL1       -0.0278
      8 C           7.0789   -2.3585    0.0000 C.3     1  UNL1       -0.0463
      9 C           7.9288    0.1830    0.0000 C.2     1  UNL1       -0.0634
     10 C           6.1808   -2.8862    0.0000 C.3     1  UNL1       -0.0486
     11 C           8.8228    0.7177    0.0000 C.3     1  UNL1       -0.0134
     12 C           4.3433   -2.9152    0.0000 C.3     1  UNL1       -0.0056
     13 C           9.7288    0.2038    0.0000 C.3     1  UNL1       -0.0255
     14 C           8.8228   -1.3516    0.0000 C.3     1  UNL1       -0.0429
     15 C           6.1968    0.1830    0.0000 C.3     1  UNL1       -0.0306
     16 C           4.3599   -0.7597    0.0000 C.3     1  UNL1       -0.0447
     17 C           9.7288   -0.8378    0.0000 C.3     1  UNL1       -0.0463
     18 C           7.7056   -2.0830    0.0000 C.3     1  UNL1       -0.0585
     19 C           7.0628    0.6830    0.0000 C.2     1  UNL1       -0.0836
     20 C           3.4037   -2.3727    0.0000 C.3     1  UNL1        0.0606
     21 C           5.2945   -0.3239    0.0000 C.3     1  UNL1       -0.0590
     22 C           8.2709   -1.7566    0.0000 C.3     1  UNL1       -0.0553
     23 C           3.4120   -1.2877    0.0000 C.3     1  UNL1       -0.0258
     24 C           8.7977    1.8024    0.0000 C.3     1  UNL1       -0.0385
     25 C          10.6726    0.7391    0.0000 C.3     1  UNL1       -0.0465
     26 C           9.7288    2.3593    0.0000 C.3     1  UNL1       -0.0083
     27 C          10.6726    1.8241    0.0000 C.3     1  UNL1       -0.0450
     28 C           3.8467   -3.7831    0.0000 C.3     1  UNL1       -0.0572
     29 C           4.8466   -3.7792    0.0000 C.3     1  UNL1       -0.0572
     30 C          10.5987   -0.2895    0.0000 C.3     1  UNL1       -0.0590
     31 C          10.2188    3.2311    0.0000 C.3     1  UNL1        0.0496
     32 C           9.2188    3.2195    0.0000 C.3     1  UNL1       -0.0575
     33 H           6.9329   -0.3920    0.0000 H       1  UNL1        0.0315
     34 H           5.2820   -3.2154    0.0000 H       1  UNL1        0.0312
     35 H           7.2969   -2.9389    0.0000 H       1  UNL1        0.0271
     36 H           7.6880   -2.2430    0.0000 H       1  UNL1        0.0271
     37 H           9.5522    1.1540    0.0000 H       1  UNL1        0.0351
     38 H           5.7835   -3.3622    0.0000 H       1  UNL1        0.0268
     39 H           6.5818   -3.3591    0.0000 H       1  UNL1        0.0268
     40 H           8.4182   -1.8214    0.0000 H       1  UNL1        0.0274
     41 H           9.2164   -1.8307    0.0000 H       1  UNL1        0.0274
     42 H           5.9847    0.7656    0.0000 H       1  UNL1        0.0310
     43 H           5.5862    0.0754    0.0000 H       1  UNL1        0.0310
     44 H           4.7681   -0.2931    0.0000 H       1  UNL1        0.0271
     45 H           3.9700   -0.2777    0.0000 H       1  UNL1        0.0271
     46 H           9.9379   -1.4215    0.0000 H       1  UNL1        0.0271
     47 H          10.3397   -0.7317    0.0000 H       1  UNL1        0.0271
     48 H           7.2306   -2.4816    0.0000 H       1  UNL1        0.0235
     49 H           8.1041   -2.5580    0.0000 H       1  UNL1        0.0235
     50 H           8.1805   -1.6845    0.0000 H       1  UNL1        0.0235
     51 H           7.0628    1.3030    0.0000 H       1  UNL1        0.0572
     52 H           3.4025   -2.9927    0.0000 H       1  UNL1        0.0599
     53 H           5.9145   -0.3286    0.0000 H       1  UNL1        0.0235
     54 H           5.2993    0.2961    0.0000 H       1  UNL1        0.0235
     55 H           4.6745   -0.3191    0.0000 H       1  UNL1        0.0235
     56 H           7.6884   -1.9688    0.0000 H       1  UNL1        0.0238
     57 H           8.4830   -2.3392    0.0000 H       1  UNL1        0.0238
     58 H           8.8535   -1.5445    0.0000 H       1  UNL1        0.0238
     59 H           3.2075   -0.7024    0.0000 H       1  UNL1        0.0290
     60 H           2.8004   -1.3891    0.0000 H       1  UNL1        0.0290
     61 H           8.5752    2.3811    0.0000 H       1  UNL1        0.0277
     62 H           8.1894    1.6822    0.0000 H       1  UNL1        0.0277
     63 H          10.8817    0.1554    0.0000 H       1  UNL1        0.0271
     64 H          11.2835    0.8452    0.0000 H       1  UNL1        0.0271
     65 H          11.2835    1.7180    0.0000 H       1  UNL1        0.0271
     66 H          10.8817    2.4078    0.0000 H       1  UNL1        0.0271
     67 H           3.3085   -3.4752    0.0000 H       1  UNL1        0.0236
     68 H           4.3109   -4.0913    0.0000 H       1  UNL1        0.0236
     69 H           5.1587   -4.3150    0.0000 H       1  UNL1        0.0236
     70 H           5.3824   -3.4672    0.0000 H       1  UNL1        0.0236
     71 H           3.5387   -4.3212    0.0000 H       1  UNL1        0.0236
     72 H           4.3848   -4.0910    0.0000 H       1  UNL1        0.0236
     73 H          10.2928   -0.8288    0.0000 H       1  UNL1        0.0235
     74 H          11.1380   -0.5953    0.0000 H       1  UNL1        0.0235
     75 H          10.9045    0.2498    0.0000 H       1  UNL1        0.0235
     76 H          10.3194    3.8428    0.0000 H       1  UNL1        0.0562
     77 H           9.6338    3.4364    0.0000 H       1  UNL1        0.0562
     78 H           9.7522    3.5357    0.0000 H       1  UNL1        0.0236
     79 H           8.9027    3.7528    0.0000 H       1  UNL1        0.0236
     80 H           8.6855    2.9033    0.0000 H       1  UNL1        0.0236
     81 H           2.0000   -2.5572    0.0000 H       1  UNL1        0.2098
     82 H          11.5225    3.7831    0.0000 H       1  UNL1        0.2094
@<TRIPOS>BOND
     1    20     1    1
     2     1    81    1
     3     2    31    1
     4     2    82    1
     5     3     4    1
     6     3     6    1
     7     3     8    1
     8     3    18    1
     9     4     5    1
    10     4    15    1
    11     4    33    1
    12     5     7    1
    13     5    16    1
    14     5    21    1
    15     6     9    1
    16     6    14    1
    17     6    22    1
    18     7    10    1
    19     7    12    1
    20     7    34    1
    21     8    10    1
    22     8    35    1
    23     8    36    1
    24     9    11    1
    25     9    19    2
    26    10    38    1
    27    10    39    1
    28    11    13    1
    29    11    24    1
    30    11    37    1
    31    12    20    1
    32    12    28    1
    33    12    29    1
    34    13    17    1
    35    13    25    1
    36    13    30    1
    37    14    17    1
    38    14    40    1
    39    14    41    1
    40    15    19    1
    41    15    42    1
    42    15    43    1
    43    16    23    1
    44    16    44    1
    45    16    45    1
    46    17    46    1
    47    17    47    1
    48    18    48    1
    49    18    49    1
    50    18    50    1
    51    19    51    1
    52    20    23    1
    53    20    52    1
    54    21    53    1
    55    21    54    1
    56    21    55    1
    57    22    56    1
    58    22    57    1
    59    22    58    1
    60    23    59    1
    61    23    60    1
    62    24    26    1
    63    24    61    1
    64    24    62    1
    65    25    27    1
    66    25    63    1
    67    25    64    1
    68    26    27    1
    69    26    31    1
    70    26    32    1
    71    27    65    1
    72    27    66    1
    73    28    67    1
    74    28    71    1
    75    28    72    1
    76    29    68    1
    77    29    69    1
    78    29    70    1
    79    30    73    1
    80    30    74    1
    81    30    75    1
    82    31    76    1
    83    31    77    1
    84    32    78    1
    85    32    79    1
    86    32    80    1
