@<TRIPOS>MOLECULE
IMPHY011016
 26 25 0 0 0
SMALL
GASTEIGER

@<TRIPOS>ATOM
      1 O           2.0000   -0.0600    0.0000 O.2     1  UNL1       -0.3008
      2 C           4.5981    0.4400    0.0000 C.3     1  UNL1       -0.0406
      3 C           3.7320   -0.0600    0.0000 C.3     1  UNL1        0.0119
      4 C           5.4641   -0.0600    0.0000 C.3     1  UNL1       -0.0339
      5 C           3.7320   -1.0600    0.0000 C.3     1  UNL1       -0.0560
      6 C           6.3301    0.4400    0.0000 C.2     1  UNL1       -0.0853
      7 C           7.1962   -0.0600    0.0000 C.2     1  UNL1       -0.0796
      8 C           2.8660    0.4400    0.0000 C.2     1  UNL1        0.1231
      9 C           8.0622    0.4400    0.0000 C.3     1  UNL1       -0.0440
     10 C           7.1962   -1.0600    0.0000 C.3     1  UNL1       -0.0440
     11 H           4.9966    0.9149    0.0000 H       1  UNL1        0.0275
     12 H           4.1996    0.9149    0.0000 H       1  UNL1        0.0275
     13 H           3.7320    0.5600    0.0000 H       1  UNL1        0.0372
     14 H           5.0656   -0.5349    0.0000 H       1  UNL1        0.0308
     15 H           5.8626   -0.5349    0.0000 H       1  UNL1        0.0308
     16 H           3.1120   -1.0600    0.0000 H       1  UNL1        0.0236
     17 H           3.7320   -1.6800    0.0000 H       1  UNL1        0.0236
     18 H           4.3520   -1.0600    0.0000 H       1  UNL1        0.0236
     19 H           6.3301    1.0600    0.0000 H       1  UNL1        0.0571
     20 H           2.8660    1.0600    0.0000 H       1  UNL1        0.1029
     21 H           8.3722   -0.0969    0.0000 H       1  UNL1        0.0274
     22 H           8.5991    0.7500    0.0000 H       1  UNL1        0.0274
     23 H           7.7522    0.9769    0.0000 H       1  UNL1        0.0274
     24 H           6.5762   -1.0600    0.0000 H       1  UNL1        0.0274
     25 H           7.1962   -1.6800    0.0000 H       1  UNL1        0.0274
     26 H           7.8162   -1.0600    0.0000 H       1  UNL1        0.0274
@<TRIPOS>BOND
     1     1     8    2
     2     2     3    1
     3     2     4    1
     4     2    11    1
     5     2    12    1
     6     3     5    1
     7     3     8    1
     8     3    13    1
     9     4     6    1
    10     4    14    1
    11     4    15    1
    12     5    16    1
    13     5    17    1
    14     5    18    1
    15     6     7    2
    16     6    19    1
    17     7     9    1
    18     7    10    1
    19     8    20    1
    20     9    21    1
    21     9    22    1
    22     9    23    1
    23    10    24    1
    24    10    25    1
    25    10    26    1
