@<TRIPOS>MOLECULE
IMPHY003083
 49 52 0 0 0
SMALL
GASTEIGER

@<TRIPOS>ATOM
      1 O           2.8963    3.3452    0.0000 O.3     1  UNL1       -0.5030
      2 O           3.8372   -4.3830    0.0000 O.3     1  UNL1       -0.4914
      3 O           4.6622    4.3830    0.0000 O.3     1  UNL1       -0.4914
      4 O           5.6405   -3.3232    0.0000 O.3     1  UNL1       -0.5033
      5 N           2.9180    0.3137    0.0000 N.4     1  UNL1        0.2503
      6 C           3.7841   -0.1863    0.0000 C.3     1  UNL1        0.0113
      7 C           2.0080   -0.1931    0.0000 C.3     1  UNL1       -0.0253
      8 C           2.9180    1.3137    0.0000 C.3     1  UNL1        0.0001
      9 C           4.6501    0.3137    0.0000 C.3     1  UNL1        0.0205
     10 C           3.8001   -1.2278    0.0000 C.ar    1  UNL1        0.0076
     11 C           2.0000   -1.2347    0.0000 C.3     1  UNL1        0.0134
     12 C           2.0520    0.8137    0.0000 C.3     1  UNL1       -0.0403
     13 C           3.7841    1.8137    0.0000 C.ar    1  UNL1        0.0455
     14 C           2.9021   -1.7555    0.0000 C.ar    1  UNL1       -0.0302
     15 C           4.6501    1.3137    0.0000 C.ar    1  UNL1       -0.0298
     16 C           4.7520   -1.7484    0.0000 C.ar    1  UNL1       -0.0078
     17 C           3.7680    2.8552    0.0000 C.ar    1  UNL1        0.1671
     18 C           2.8937   -2.8405    0.0000 C.ar    1  UNL1       -0.0125
     19 C           5.5601    1.8206    0.0000 C.ar    1  UNL1       -0.0542
     20 C           4.7688   -2.8333    0.0000 C.ar    1  UNL1        0.1589
     21 C           3.8334   -3.3830    0.0000 C.ar    1  UNL1        0.1615
     22 C           4.6660    3.3830    0.0000 C.ar    1  UNL1        0.1618
     23 C           5.5681    2.8622    0.0000 C.ar    1  UNL1       -0.0160
     24 C           2.9731   -4.8863    0.0000 C.3     1  UNL1        0.0790
     25 C           5.5263    4.8863    0.0000 C.3     1  UNL1        0.0790
     26 H           4.5234   -0.6056    0.0000 H       1  UNL1        0.0908
     27 H           1.8035    0.3922    0.0000 H       1  UNL1        0.0818
     28 H           1.3964   -0.2945    0.0000 H       1  UNL1        0.0818
     29 H           2.7060    1.8963    0.0000 H       1  UNL1        0.0869
     30 H           2.3074    1.2061    0.0000 H       1  UNL1        0.0869
     31 H           4.8621   -0.2689    0.0000 H       1  UNL1        0.0372
     32 H           5.2607    0.4214    0.0000 H       1  UNL1        0.0372
     33 H           1.3900   -1.1239    0.0000 H       1  UNL1        0.0365
     34 H           1.7864   -1.8168    0.0000 H       1  UNL1        0.0365
     35 H           2.3620    1.3507    0.0000 H       1  UNL1        0.0778
     36 H           1.5151    1.1237    0.0000 H       1  UNL1        0.0778
     37 H           1.7420    0.2768    0.0000 H       1  UNL1        0.0778
     38 H           5.2829   -1.4281    0.0000 H       1  UNL1        0.0660
     39 H           2.3556   -3.1484    0.0000 H       1  UNL1        0.0658
     40 H           6.0934    1.5044    0.0000 H       1  UNL1        0.0622
     41 H           6.1062    3.1701    0.0000 H       1  UNL1        0.0655
     42 H           2.8891    3.9652    0.0000 H       1  UNL1        0.2923
     43 H           6.1738   -3.0070    0.0000 H       1  UNL1        0.2923
     44 H           2.6610   -4.3506    0.0000 H       1  UNL1        0.0660
     45 H           2.4374   -5.1984    0.0000 H       1  UNL1        0.0660
     46 H           3.2852   -5.4221    0.0000 H       1  UNL1        0.0660
     47 H           5.8383    4.3506    0.0000 H       1  UNL1        0.0660
     48 H           6.0620    5.1984    0.0000 H       1  UNL1        0.0660
     49 H           5.2142    5.4220    0.0000 H       1  UNL1        0.0660
@<TRIPOS>UNITY_ATOM_ATTR
5 1
charge 1
@<TRIPOS>BOND
     1     1    17    1
     2     1    42    1
     3     2    21    1
     4     2    24    1
     5     3    22    1
     6     3    25    1
     7     4    20    1
     8     4    43    1
     9     5     6    1
    10     5     7    1
    11     5     8    1
    12     5    12    1
    13     6     9    1
    14     6    10    1
    15     6    26    1
    16     7    11    1
    17     7    27    1
    18     7    28    1
    19     8    13    1
    20     8    29    1
    21     8    30    1
    22     9    15    1
    23     9    31    1
    24     9    32    1
    25    10    14   ar
    26    10    16   ar
    27    11    14    1
    28    11    33    1
    29    11    34    1
    30    12    35    1
    31    12    36    1
    32    12    37    1
    33    13    15   ar
    34    13    17   ar
    35    14    18   ar
    36    15    19   ar
    37    16    20   ar
    38    16    38    1
    39    17    22   ar
    40    18    21   ar
    41    18    39    1
    42    19    23   ar
    43    19    40    1
    44    20    21   ar
    45    22    23   ar
    46    23    41    1
    47    24    44    1
    48    24    45    1
    49    24    46    1
    50    25    47    1
    51    25    48    1
    52    25    49    1
