@<TRIPOS>MOLECULE
IMPHY001808
 49 48 0 0 0
SMALL
GASTEIGER

@<TRIPOS>ATOM
      1 O          10.6603    1.0950    0.0000 O.3     1  UNL1       -0.3884
      2 O          12.3923    0.0950    0.0000 O.3     1  UNL1       -0.4588
      3 O          13.2583   -1.4050    0.0000 O.2     1  UNL1       -0.2453
      4 C           7.1962    0.0950    0.0000 C.3     1  UNL1       -0.0531
      5 C           8.0622   -0.4050    0.0000 C.3     1  UNL1       -0.0530
      6 C           6.3301   -0.4050    0.0000 C.3     1  UNL1       -0.0531
      7 C           8.9282    0.0950    0.0000 C.3     1  UNL1       -0.0506
      8 C           5.4641    0.0950    0.0000 C.3     1  UNL1       -0.0531
      9 C           9.7942   -0.4050    0.0000 C.3     1  UNL1       -0.0237
     10 C           4.5981   -0.4050    0.0000 C.3     1  UNL1       -0.0531
     11 C          10.6603    0.0950    0.0000 C.3     1  UNL1        0.0893
     12 C           3.7320    0.0950    0.0000 C.3     1  UNL1       -0.0533
     13 C           2.8660   -0.4050    0.0000 C.3     1  UNL1       -0.0559
     14 C          11.5263   -0.4050    0.0000 C.3     1  UNL1        0.1186
     15 C           2.0000    0.0950    0.0000 C.3     1  UNL1       -0.0653
     16 C          13.2583   -0.4050    0.0000 C.2     1  UNL1        0.3344
     17 C          14.1244    0.0950    0.0000 C.2     1  UNL1        0.0264
     18 C          14.9904   -0.4050    0.0000 C.3     1  UNL1       -0.0335
     19 C          14.1244    1.0950    0.0000 C.2     1  UNL1       -0.0890
     20 H           7.5947    0.5699    0.0000 H       1  UNL1        0.0265
     21 H           6.7976    0.5699    0.0000 H       1  UNL1        0.0265
     22 H           7.6636   -0.8799    0.0000 H       1  UNL1        0.0265
     23 H           8.4607   -0.8799    0.0000 H       1  UNL1        0.0265
     24 H           5.9316   -0.8799    0.0000 H       1  UNL1        0.0265
     25 H           6.7287   -0.8799    0.0000 H       1  UNL1        0.0265
     26 H           9.3267    0.5699    0.0000 H       1  UNL1        0.0266
     27 H           8.5297    0.5699    0.0000 H       1  UNL1        0.0266
     28 H           5.8626    0.5699    0.0000 H       1  UNL1        0.0265
     29 H           5.0656    0.5699    0.0000 H       1  UNL1        0.0265
     30 H           9.3957   -0.8799    0.0000 H       1  UNL1        0.0291
     31 H          10.1928   -0.8799    0.0000 H       1  UNL1        0.0291
     32 H           4.1996   -0.8799    0.0000 H       1  UNL1        0.0265
     33 H           4.9966   -0.8799    0.0000 H       1  UNL1        0.0265
     34 H          11.3964    0.5200    0.0000 H       1  UNL1        0.0627
     35 H           4.1306    0.5699    0.0000 H       1  UNL1        0.0265
     36 H           3.3335    0.5699    0.0000 H       1  UNL1        0.0265
     37 H           2.4675   -0.8799    0.0000 H       1  UNL1        0.0263
     38 H           3.2646   -0.8799    0.0000 H       1  UNL1        0.0263
     39 H          11.1278   -0.8799    0.0000 H       1  UNL1        0.0724
     40 H          11.9248   -0.8799    0.0000 H       1  UNL1        0.0724
     41 H           2.3100    0.6319    0.0000 H       1  UNL1        0.0230
     42 H           1.4631    0.4050    0.0000 H       1  UNL1        0.0230
     43 H           1.6900   -0.4419    0.0000 H       1  UNL1        0.0230
     44 H          10.1233    1.4050    0.0000 H       1  UNL1        0.2099
     45 H          14.6804   -0.9419    0.0000 H       1  UNL1        0.0280
     46 H          15.5273   -0.7150    0.0000 H       1  UNL1        0.0280
     47 H          15.3004    0.1319    0.0000 H       1  UNL1        0.0280
     48 H          14.6613    1.4050    0.0000 H       1  UNL1        0.0540
     49 H          13.5874    1.4050    0.0000 H       1  UNL1        0.0540
@<TRIPOS>BOND
     1     1    11    1
     2     1    44    1
     3     2    14    1
     4     2    16    1
     5     3    16    2
     6     4     5    1
     7     4     6    1
     8     4    20    1
     9     4    21    1
    10     5     7    1
    11     5    22    1
    12     5    23    1
    13     6     8    1
    14     6    24    1
    15     6    25    1
    16     7     9    1
    17     7    26    1
    18     7    27    1
    19     8    10    1
    20     8    28    1
    21     8    29    1
    22     9    11    1
    23     9    30    1
    24     9    31    1
    25    10    12    1
    26    10    32    1
    27    10    33    1
    28    11    14    1
    29    11    34    1
    30    12    13    1
    31    12    35    1
    32    12    36    1
    33    13    15    1
    34    13    37    1
    35    13    38    1
    36    14    39    1
    37    14    40    1
    38    15    41    1
    39    15    42    1
    40    15    43    1
    41    16    17    1
    42    17    18    1
    43    17    19    2
    44    18    45    1
    45    18    46    1
    46    18    47    1
    47    19    48    1
    48    19    49    1
