@<TRIPOS>MOLECULE
IMPHY017426
 30 29 0 0 0
SMALL
GASTEIGER

@<TRIPOS>ATOM
      1 O           7.1962    0.4400    0.0000 O.3     1  UNL1       -0.4616
      2 O           6.3301   -1.0600    0.0000 O.2     1  UNL1       -0.2456
      3 C           8.9282    0.4400    0.0000 C.3     1  UNL1       -0.0188
      4 C           9.7942   -0.0600    0.0000 C.3     1  UNL1       -0.0528
      5 C           8.0622   -0.0600    0.0000 C.3     1  UNL1        0.0928
      6 C           3.7320    0.4400    0.0000 C.3     1  UNL1       -0.0345
      7 C           2.8660   -0.0600    0.0000 C.3     1  UNL1       -0.0525
      8 C          10.6603    0.4400    0.0000 C.3     1  UNL1       -0.0652
      9 C           4.5981   -0.0600    0.0000 C.2     1  UNL1       -0.0773
     10 C           2.0000    0.4400    0.0000 C.3     1  UNL1       -0.0650
     11 C           5.4641    0.4400    0.0000 C.2     1  UNL1        0.0186
     12 C           6.3301   -0.0600    0.0000 C.2     1  UNL1        0.3316
     13 H           9.3267    0.9149    0.0000 H       1  UNL1        0.0298
     14 H           8.5297    0.9149    0.0000 H       1  UNL1        0.0298
     15 H           9.3957   -0.5349    0.0000 H       1  UNL1        0.0264
     16 H          10.1928   -0.5349    0.0000 H       1  UNL1        0.0264
     17 H           7.6636   -0.5349    0.0000 H       1  UNL1        0.0697
     18 H           8.4607   -0.5349    0.0000 H       1  UNL1        0.0697
     19 H           4.1306    0.9149    0.0000 H       1  UNL1        0.0307
     20 H           3.3335    0.9149    0.0000 H       1  UNL1        0.0307
     21 H           2.4675   -0.5349    0.0000 H       1  UNL1        0.0266
     22 H           3.2646   -0.5349    0.0000 H       1  UNL1        0.0266
     23 H          10.9703   -0.0969    0.0000 H       1  UNL1        0.0230
     24 H          11.1972    0.7500    0.0000 H       1  UNL1        0.0230
     25 H          10.3503    0.9769    0.0000 H       1  UNL1        0.0230
     26 H           4.5981   -0.6800    0.0000 H       1  UNL1        0.0574
     27 H           2.3100    0.9769    0.0000 H       1  UNL1        0.0230
     28 H           1.4631    0.7500    0.0000 H       1  UNL1        0.0230
     29 H           1.6900   -0.0969    0.0000 H       1  UNL1        0.0230
     30 H           5.4641    1.0600    0.0000 H       1  UNL1        0.0686
@<TRIPOS>BOND
     1     1     5    1
     2     1    12    1
     3     2    12    2
     4     3     4    1
     5     3     5    1
     6     3    13    1
     7     3    14    1
     8     4     8    1
     9     4    15    1
    10     4    16    1
    11     5    17    1
    12     5    18    1
    13     6     7    1
    14     6     9    1
    15     6    19    1
    16     6    20    1
    17     7    10    1
    18     7    21    1
    19     7    22    1
    20     8    23    1
    21     8    24    1
    22     8    25    1
    23     9    11    2
    24     9    26    1
    25    10    27    1
    26    10    28    1
    27    10    29    1
    28    11    12    1
    29    11    30    1
