@<TRIPOS>MOLECULE
IMPHY007182
 45 44 0 0 0
SMALL
GASTEIGER

@<TRIPOS>ATOM
      1 O          14.1244    0.2500    0.0000 O.3     1  UNL1       -0.3950
      2 C           8.0622   -0.2500    0.0000 C.3     1  UNL1       -0.0531
      3 C           7.1962    0.2500    0.0000 C.3     1  UNL1       -0.0531
      4 C           8.9282    0.2500    0.0000 C.3     1  UNL1       -0.0531
      5 C           6.3301   -0.2500    0.0000 C.3     1  UNL1       -0.0531
      6 C           9.7942   -0.2500    0.0000 C.3     1  UNL1       -0.0531
      7 C           5.4641    0.2500    0.0000 C.3     1  UNL1       -0.0531
      8 C          10.6603    0.2500    0.0000 C.3     1  UNL1       -0.0530
      9 C           4.5981   -0.2500    0.0000 C.3     1  UNL1       -0.0531
     10 C          11.5263   -0.2500    0.0000 C.3     1  UNL1       -0.0510
     11 C           3.7320    0.2500    0.0000 C.3     1  UNL1       -0.0533
     12 C          12.3923    0.2500    0.0000 C.3     1  UNL1       -0.0297
     13 C           2.8660   -0.2500    0.0000 C.3     1  UNL1       -0.0559
     14 C          13.2583   -0.2500    0.0000 C.3     1  UNL1        0.0442
     15 C           2.0000    0.2500    0.0000 C.3     1  UNL1       -0.0653
     16 H           7.6636   -0.7249    0.0000 H       1  UNL1        0.0265
     17 H           8.4607   -0.7249    0.0000 H       1  UNL1        0.0265
     18 H           7.5947    0.7249    0.0000 H       1  UNL1        0.0265
     19 H           6.7976    0.7249    0.0000 H       1  UNL1        0.0265
     20 H           9.3267    0.7249    0.0000 H       1  UNL1        0.0265
     21 H           8.5297    0.7249    0.0000 H       1  UNL1        0.0265
     22 H           5.9316   -0.7249    0.0000 H       1  UNL1        0.0265
     23 H           6.7287   -0.7249    0.0000 H       1  UNL1        0.0265
     24 H           9.3957   -0.7249    0.0000 H       1  UNL1        0.0265
     25 H          10.1928   -0.7249    0.0000 H       1  UNL1        0.0265
     26 H           5.8626    0.7249    0.0000 H       1  UNL1        0.0265
     27 H           5.0656    0.7249    0.0000 H       1  UNL1        0.0265
     28 H          11.0588    0.7249    0.0000 H       1  UNL1        0.0265
     29 H          10.2617    0.7249    0.0000 H       1  UNL1        0.0265
     30 H           4.1996   -0.7249    0.0000 H       1  UNL1        0.0265
     31 H           4.9966   -0.7249    0.0000 H       1  UNL1        0.0265
     32 H          11.1278   -0.7249    0.0000 H       1  UNL1        0.0266
     33 H          11.9248   -0.7249    0.0000 H       1  UNL1        0.0266
     34 H           4.1306    0.7249    0.0000 H       1  UNL1        0.0265
     35 H           3.3335    0.7249    0.0000 H       1  UNL1        0.0265
     36 H          12.7908    0.7249    0.0000 H       1  UNL1        0.0287
     37 H          11.9938    0.7249    0.0000 H       1  UNL1        0.0287
     38 H           2.4675   -0.7249    0.0000 H       1  UNL1        0.0263
     39 H           3.2646   -0.7249    0.0000 H       1  UNL1        0.0263
     40 H          12.8598   -0.7249    0.0000 H       1  UNL1        0.0557
     41 H          13.6569   -0.7249    0.0000 H       1  UNL1        0.0557
     42 H           2.3100    0.7869    0.0000 H       1  UNL1        0.0230
     43 H           1.4631    0.5600    0.0000 H       1  UNL1        0.0230
     44 H           1.6900   -0.2869    0.0000 H       1  UNL1        0.0230
     45 H          14.6613   -0.0600    0.0000 H       1  UNL1        0.2094
@<TRIPOS>BOND
     1     1    14    1
     2     1    45    1
     3     2     3    1
     4     2     4    1
     5     2    16    1
     6     2    17    1
     7     3     5    1
     8     3    18    1
     9     3    19    1
    10     4     6    1
    11     4    20    1
    12     4    21    1
    13     5     7    1
    14     5    22    1
    15     5    23    1
    16     6     8    1
    17     6    24    1
    18     6    25    1
    19     7     9    1
    20     7    26    1
    21     7    27    1
    22     8    10    1
    23     8    28    1
    24     8    29    1
    25     9    11    1
    26     9    30    1
    27     9    31    1
    28    10    12    1
    29    10    32    1
    30    10    33    1
    31    11    13    1
    32    11    34    1
    33    11    35    1
    34    12    14    1
    35    12    36    1
    36    12    37    1
    37    13    15    1
    38    13    38    1
    39    13    39    1
    40    14    40    1
    41    14    41    1
    42    15    42    1
    43    15    43    1
    44    15    44    1
