@<TRIPOS>MOLECULE
IMPHY016442
 23 23 0 0 0
SMALL
GASTEIGER

@<TRIPOS>ATOM
      1 O           2.8660    2.5000    0.0000 O.2     1  UNL1       -0.2977
      2 C           2.8660    0.5000    0.0000 C.3     1  UNL1       -0.0210
      3 C           3.7320    1.0000    0.0000 C.3     1  UNL1        0.0095
      4 C           2.8660   -0.5000    0.0000 C.ar    1  UNL1       -0.0470
      5 C           3.7320    2.0000    0.0000 C.2     1  UNL1        0.1306
      6 C           2.0000   -1.0000    0.0000 C.ar    1  UNL1       -0.0586
      7 C           3.7320   -1.0000    0.0000 C.ar    1  UNL1       -0.0586
      8 C           2.0000   -2.0000    0.0000 C.ar    1  UNL1       -0.0615
      9 C           3.7320   -2.0000    0.0000 C.ar    1  UNL1       -0.0615
     10 C           4.5981    2.5000    0.0000 C.3     1  UNL1       -0.0061
     11 C           2.8660   -2.5000    0.0000 C.ar    1  UNL1       -0.0617
     12 H           2.6540    1.0826    0.0000 H       1  UNL1        0.0317
     13 H           2.2554    0.3923    0.0000 H       1  UNL1        0.0317
     14 H           3.9441    0.4174    0.0000 H       1  UNL1        0.0345
     15 H           4.3426    1.1077    0.0000 H       1  UNL1        0.0345
     16 H           1.4631   -0.6900    0.0000 H       1  UNL1        0.0620
     17 H           4.2690   -0.6900    0.0000 H       1  UNL1        0.0620
     18 H           1.4631   -2.3100    0.0000 H       1  UNL1        0.0618
     19 H           4.2690   -2.3100    0.0000 H       1  UNL1        0.0618
     20 H           4.9081    1.9631    0.0000 H       1  UNL1        0.0306
     21 H           5.1350    2.8100    0.0000 H       1  UNL1        0.0306
     22 H           4.2881    3.0369    0.0000 H       1  UNL1        0.0306
     23 H           2.8660   -3.1200    0.0000 H       1  UNL1        0.0618
@<TRIPOS>BOND
     1     1     5    2
     2     2     3    1
     3     2     4    1
     4     2    12    1
     5     2    13    1
     6     3     5    1
     7     3    14    1
     8     3    15    1
     9     4     6   ar
    10     4     7   ar
    11     5    10    1
    12     6     8   ar
    13     6    16    1
    14     7     9   ar
    15     7    17    1
    16     8    11   ar
    17     8    18    1
    18     9    11   ar
    19     9    19    1
    20    10    20    1
    21    10    21    1
    22    10    22    1
    23    11    23    1
