@<TRIPOS>MOLECULE
IMPHY002770
 35 36 0 0 0
SMALL
GASTEIGER

@<TRIPOS>ATOM
      1 O           5.4641   -2.0000    0.0000 O.3     1  UNL1       -0.5057
      2 O           5.4641    2.0000    0.0000 O.3     1  UNL1       -0.5058
      3 O           8.9942   -1.0241    0.0000 O.2     1  UNL1       -0.4911
      4 O           7.2125   -2.0346    0.0000 O.2     1  UNL1       -0.2832
      5 O           7.2125    2.0346    0.0000 O.2     1  UNL1       -0.2870
      6 O           2.8660    0.5000    0.0000 O.2     1  UNL1       -0.2974
      7 C           4.5981   -0.5000    0.0000 C.ar    1  UNL1        0.0082
      8 C           6.3301   -0.5000    0.0000 C.ar    1  UNL1        0.0813
      9 C           4.5981    0.5000    0.0000 C.ar    1  UNL1       -0.0013
     10 C           6.3301    0.5000    0.0000 C.ar    1  UNL1        0.0778
     11 C           5.4641   -1.0000    0.0000 C.ar    1  UNL1        0.1325
     12 C           5.4641    1.0000    0.0000 C.ar    1  UNL1        0.1317
     13 C           3.7320   -1.0000    0.0000 C.3     1  UNL1        0.0346
     14 C           7.2241   -1.0347    0.0000 C.2     1  UNL1        0.2317
     15 C           7.2241    1.0347    0.0000 C.2     1  UNL1        0.1940
     16 C           3.7320    1.0000    0.0000 C.3     1  UNL1       -0.0358
     17 C           8.1301   -0.5208    0.0000 C.2     1  UNL1        0.1709
     18 C           8.1301    0.5208    0.0000 C.2     1  UNL1        0.0313
     19 C           2.8660   -0.5000    0.0000 C.2     1  UNL1        0.1347
     20 C           2.0000   -1.0000    0.0000 C.3     1  UNL1       -0.0057
     21 C           9.8622   -0.5275    0.0000 C.3     1  UNL1        0.0790
     22 H           3.3335   -1.4750    0.0000 H       1  UNL1        0.0391
     23 H           4.1306   -1.4750    0.0000 H       1  UNL1        0.0391
     24 H           4.0420    1.5369    0.0000 H       1  UNL1        0.0279
     25 H           3.1951    1.3100    0.0000 H       1  UNL1        0.0279
     26 H           3.4220    0.4631    0.0000 H       1  UNL1        0.0279
     27 H           8.6659    0.8329    0.0000 H       1  UNL1        0.0694
     28 H           4.9272   -2.3100    0.0000 H       1  UNL1        0.2922
     29 H           4.9272    2.3100    0.0000 H       1  UNL1        0.2922
     30 H           1.6900   -0.4631    0.0000 H       1  UNL1        0.0306
     31 H           1.4631   -1.3100    0.0000 H       1  UNL1        0.0306
     32 H           2.3100   -1.5369    0.0000 H       1  UNL1        0.0306
     33 H          10.1701   -1.0656    0.0000 H       1  UNL1        0.0660
     34 H          10.4003   -0.2196    0.0000 H       1  UNL1        0.0660
     35 H           9.5542    0.0106    0.0000 H       1  UNL1        0.0660
@<TRIPOS>BOND
     1     1    11    1
     2     1    28    1
     3     2    12    1
     4     2    29    1
     5     3    17    1
     6     3    21    1
     7     4    14    2
     8     5    15    2
     9     6    19    2
    10     7     9   ar
    11     7    11   ar
    12     7    13    1
    13     8    10   ar
    14     8    11   ar
    15     8    14    1
    16     9    12   ar
    17     9    16    1
    18    10    12   ar
    19    10    15    1
    20    13    19    1
    21    13    22    1
    22    13    23    1
    23    14    17    1
    24    15    18    1
    25    16    24    1
    26    16    25    1
    27    16    26    1
    28    17    18    2
    29    18    27    1
    30    19    20    1
    31    20    30    1
    32    20    31    1
    33    20    32    1
    34    21    33    1
    35    21    34    1
    36    21    35    1
