@<TRIPOS>MOLECULE
IMPHY002479
 55 56 0 0 0
SMALL
GASTEIGER

@<TRIPOS>ATOM
      1 O           6.0010   -1.2621    0.0000 O.3     1  UNL1       -0.4609
      2 O           5.1350    0.2379    0.0000 O.2     1  UNL1       -0.2507
      3 O           2.5369   -0.2621    0.0000 O.3     1  UNL1       -0.3886
      4 C           8.5991   -0.7621    0.0000 C.3     1  UNL1       -0.0222
      5 C           8.5991    0.2379    0.0000 C.3     1  UNL1       -0.0140
      6 C           9.4931   -1.2967    0.0000 C.3     1  UNL1       -0.0464
      7 C           7.7331   -1.2621    0.0000 C.3     1  UNL1       -0.0094
      8 C           9.4931    0.7726    0.0000 C.3     1  UNL1       -0.0395
      9 C          10.3991    0.2587    0.0000 C.3     1  UNL1       -0.0198
     10 C          10.3991   -0.7829    0.0000 C.3     1  UNL1       -0.0460
     11 C           6.8671   -0.7621    0.0000 C.3     1  UNL1        0.1072
     12 C           7.7331    0.7379    0.0000 C.2     1  UNL1       -0.0695
     13 C           8.5991   -1.7621    0.0000 C.3     1  UNL1       -0.0589
     14 C           6.8671    0.2379    0.0000 C.3     1  UNL1        0.0056
     15 C          11.2632    0.7621    0.0000 C.2     1  UNL1       -0.0766
     16 C           7.7331    1.7379    0.0000 C.2     1  UNL1       -0.0990
     17 C          12.1312    0.2654    0.0000 C.3     1  UNL1       -0.0438
     18 C          11.2594    1.7621    0.0000 C.2     1  UNL1       -0.0994
     19 C           5.1350   -0.7621    0.0000 C.2     1  UNL1        0.3101
     20 C           4.2690   -1.2621    0.0000 C.3     1  UNL1        0.0732
     21 C           3.4030   -0.7621    0.0000 C.3     1  UNL1        0.0706
     22 C           2.9030   -1.6281    0.0000 C.3     1  UNL1       -0.0358
     23 C           3.9030    0.1040    0.0000 C.3     1  UNL1       -0.0358
     24 H           8.5926    1.0879    0.0000 H       1  UNL1        0.0351
     25 H           9.0885   -1.7665    0.0000 H       1  UNL1        0.0271
     26 H           9.8867   -1.7758    0.0000 H       1  UNL1        0.0271
     27 H           7.3346   -1.7370    0.0000 H       1  UNL1        0.0306
     28 H           8.1316   -1.7370    0.0000 H       1  UNL1        0.0306
     29 H           9.8867    1.2516    0.0000 H       1  UNL1        0.0277
     30 H           9.0885    1.2424    0.0000 H       1  UNL1        0.0277
     31 H          10.3955    0.8787    0.0000 H       1  UNL1        0.0346
     32 H          10.6082   -1.3666    0.0000 H       1  UNL1        0.0271
     33 H          11.0100   -0.6768    0.0000 H       1  UNL1        0.0271
     34 H           6.3301   -0.4521    0.0000 H       1  UNL1        0.0737
     35 H           7.9791   -1.7621    0.0000 H       1  UNL1        0.0235
     36 H           8.5991   -2.3821    0.0000 H       1  UNL1        0.0235
     37 H           9.2191   -1.7621    0.0000 H       1  UNL1        0.0235
     38 H           6.6550    0.8205    0.0000 H       1  UNL1        0.0346
     39 H           6.2565    0.1303    0.0000 H       1  UNL1        0.0346
     40 H           8.2700    2.0479    0.0000 H       1  UNL1        0.0535
     41 H           7.1962    2.0479    0.0000 H       1  UNL1        0.0535
     42 H          11.8232   -0.2727    0.0000 H       1  UNL1        0.0274
     43 H          12.6693   -0.0425    0.0000 H       1  UNL1        0.0274
     44 H          12.4391    0.8035    0.0000 H       1  UNL1        0.0274
     45 H          11.7951    2.0741    0.0000 H       1  UNL1        0.0534
     46 H          10.7212    2.0700    0.0000 H       1  UNL1        0.0534
     47 H           3.8705   -1.7370    0.0000 H       1  UNL1        0.0406
     48 H           4.6675   -1.7370    0.0000 H       1  UNL1        0.0406
     49 H           2.3660   -1.3181    0.0000 H       1  UNL1        0.0257
     50 H           2.5930   -2.1650    0.0000 H       1  UNL1        0.0257
     51 H           3.4399   -1.9381    0.0000 H       1  UNL1        0.0257
     52 H           4.4399   -0.2060    0.0000 H       1  UNL1        0.0257
     53 H           4.2130    0.6409    0.0000 H       1  UNL1        0.0257
     54 H           3.3660    0.4140    0.0000 H       1  UNL1        0.0257
     55 H           2.0000   -0.5721    0.0000 H       1  UNL1        0.2102
@<TRIPOS>BOND
     1    11     1    1
     2     1    19    1
     3     2    19    2
     4     3    21    1
     5     3    55    1
     6     4     5    1
     7     4     6    1
     8     4     7    1
     9     4    13    1
    10     5     8    1
    11     5    12    1
    12     5    24    1
    13     6    10    1
    14     6    25    1
    15     6    26    1
    16     7    11    1
    17     7    27    1
    18     7    28    1
    19     8     9    1
    20     8    29    1
    21     8    30    1
    22     9    10    1
    23     9    15    1
    24     9    31    1
    25    10    32    1
    26    10    33    1
    27    11    14    1
    28    11    34    1
    29    12    14    1
    30    12    16    2
    31    13    35    1
    32    13    36    1
    33    13    37    1
    34    14    38    1
    35    14    39    1
    36    15    17    1
    37    15    18    2
    38    16    40    1
    39    16    41    1
    40    17    42    1
    41    17    43    1
    42    17    44    1
    43    18    45    1
    44    18    46    1
    45    19    20    1
    46    20    21    1
    47    20    47    1
    48    20    48    1
    49    21    22    1
    50    21    23    1
    51    22    49    1
    52    22    50    1
    53    22    51    1
    54    23    52    1
    55    23    53    1
    56    23    54    1
