@<TRIPOS>MOLECULE
IMPHY013240
 178 187 0 0 0
SMALL
GASTEIGER

@<TRIPOS>ATOM
      1 O           7.5233    5.7663    0.0000 O.3     1  UNL1       -0.3449
      2 O           7.2176   -1.6642    0.0000 O.3     1  UNL1       -0.3906
      3 O           8.5991   -3.6307    0.0000 O.3     1  UNL1       -0.4306
      4 O           7.5991   -2.6307    0.0000 O.2     1  UNL1       -0.2500
      5 O           7.8438    7.4685    0.0000 O.3     1  UNL1       -0.3315
      6 O           6.8671   -3.6307    0.0000 O.3     1  UNL1       -0.3360
      7 O           9.4888    5.3963    0.0000 O.3     1  UNL1       -0.3841
      8 O          10.7920    6.9134    0.0000 O.3     1  UNL1       -0.3864
      9 O           8.5991   -5.6307    0.0000 O.3     1  UNL1       -0.4492
     10 O          10.1297    8.8006    0.0000 O.3     1  UNL1       -0.3860
     11 O           6.8671   -6.6307    0.0000 O.3     1  UNL1       -0.3389
     12 O           5.1350   -5.6307    0.0000 O.3     1  UNL1       -0.3868
     13 O           7.1815    9.3556    0.0000 O.3     1  UNL1       -0.4788
     14 O           8.8158    9.9292    0.0000 O.2     1  UNL1       -0.2480
     15 O           5.1350   -6.6307    0.0000 O.3     1  UNL1       -0.3405
     16 O           9.4651   -4.1307    0.0000 O.2     1  UNL1       -0.2456
     17 O           6.8671   -8.6307    0.0000 O.3     1  UNL1       -0.3841
     18 O           5.1350   -9.6307    0.0000 O.3     1  UNL1       -0.3864
     19 O           3.4030   -8.6307    0.0000 O.3     1  UNL1       -0.3865
     20 O           2.5369   -7.1307    0.0000 O.3     1  UNL1       -0.3924
     21 O          14.6613   -7.1307    0.0000 O.3     1  UNL1       -0.4608
     22 O          16.3933   -7.1307    0.0000 O.3     1  UNL1       -0.3313
     23 O          14.6613   -5.1307    0.0000 O.3     1  UNL1       -0.3829
     24 O          16.3933   -4.1307    0.0000 O.3     1  UNL1       -0.3864
     25 O          18.1254   -5.1307    0.0000 O.3     1  UNL1       -0.3865
     26 O          18.1254   -8.1307    0.0000 O.3     1  UNL1       -0.3924
     27 C           8.2294    1.0329    0.0000 C.3     1  UNL1       -0.0193
     28 C           8.8781    1.7940    0.0000 C.3     1  UNL1       -0.0257
     29 C           8.5446    2.7808    0.0000 C.3     1  UNL1       -0.0250
     30 C           8.5642    0.0906    0.0000 C.3     1  UNL1       -0.0028
     31 C           7.5217    2.9774    0.0000 C.3     1  UNL1       -0.0278
     32 C           7.2023    1.2059    0.0000 C.3     1  UNL1       -0.0463
     33 C           6.8460    2.1847    0.0000 C.3     1  UNL1       -0.0486
     34 C           7.1506    3.9970    0.0000 C.3     1  UNL1       -0.0052
     35 C           9.5477   -0.0906    0.0000 C.2     1  UNL1       -0.0627
     36 C           9.9114   -1.0667    0.0000 C.3     1  UNL1       -0.0007
     37 C           9.8616    1.6127    0.0000 C.3     1  UNL1       -0.0306
     38 C           9.2673    3.5900    0.0000 C.3     1  UNL1       -0.0447
     39 C           7.8764   -0.6916    0.0000 C.3     1  UNL1       -0.0162
     40 C           9.2419   -1.8646    0.0000 C.3     1  UNL1        0.1000
     41 C           8.2175   -1.6758    0.0000 C.3     1  UNL1        0.0723
     42 C           7.3596    0.5396    0.0000 C.3     1  UNL1       -0.0585
     43 C           7.8544    4.8227    0.0000 C.3     1  UNL1        0.0672
     44 C          10.1963    0.6704    0.0000 C.2     1  UNL1       -0.0836
     45 C           9.5266    2.5919    0.0000 C.3     1  UNL1       -0.0590
     46 C           8.9199    4.6179    0.0000 C.3     1  UNL1       -0.0255
     47 C           7.5781   -0.0755    0.0000 C.3     1  UNL1       -0.0552
     48 C          10.9827   -1.2386    0.0000 C.3     1  UNL1       -0.0402
     49 C           9.5972   -2.8898    0.0000 C.3     1  UNL1       -0.0338
     50 C          11.3617   -2.2553    0.0000 C.3     1  UNL1       -0.0343
     51 C           6.3870    4.6427    0.0000 C.3     1  UNL1       -0.0572
     52 C           6.2096    3.6586    0.0000 C.3     1  UNL1       -0.0572
     53 C          10.6643   -3.0864    0.0000 C.3     1  UNL1       -0.0467
     54 C           8.5991   -2.6307    0.0000 C.2     1  UNL1        0.3187
     55 C          12.3000   -1.9096    0.0000 C.3     1  UNL1       -0.0598
     56 C          12.1302   -2.8951    0.0000 C.3     1  UNL1       -0.0598
     57 C           8.1749    6.5249    0.0000 C.3     1  UNL1        0.1888
     58 C           9.1576    6.3399    0.0000 C.3     1  UNL1        0.1341
     59 C           7.7331   -4.1307    0.0000 C.3     1  UNL1        0.2447
     60 C           9.8092    7.0984    0.0000 C.3     1  UNL1        0.1145
     61 C           8.4954    8.2270    0.0000 C.3     1  UNL1        0.1859
     62 C           7.7331   -5.1307    0.0000 C.3     1  UNL1        0.1936
     63 C           9.4781    8.0420    0.0000 C.3     1  UNL1        0.1201
     64 C           6.8671   -5.6307    0.0000 C.3     1  UNL1        0.1324
     65 C           6.0010   -4.1307    0.0000 C.3     1  UNL1        0.0803
     66 C           6.0010   -5.1307    0.0000 C.3     1  UNL1        0.1084
     67 C           8.1642    9.1706    0.0000 C.2     1  UNL1        0.3367
     68 C           9.4651   -5.1307    0.0000 C.2     1  UNL1        0.3325
     69 C           6.0010   -7.1307    0.0000 C.3     1  UNL1        0.1885
     70 C           6.0010   -8.1307    0.0000 C.3     1  UNL1        0.1341
     71 C          10.3312   -5.6307    0.0000 C.2     1  UNL1        0.0231
     72 C           5.1350   -8.6307    0.0000 C.3     1  UNL1        0.1141
     73 C           4.2690   -7.1307    0.0000 C.3     1  UNL1        0.1130
     74 C           4.2690   -8.1307    0.0000 C.3     1  UNL1        0.1119
     75 C          11.1972   -5.1307    0.0000 C.2     1  UNL1       -0.0478
     76 C           3.4030   -6.6307    0.0000 C.3     1  UNL1        0.0730
     77 C          12.0632   -5.6307    0.0000 C.ar    1  UNL1       -0.0246
     78 C          12.0632   -6.6307    0.0000 C.ar    1  UNL1       -0.0511
     79 C          12.9292   -5.1307    0.0000 C.ar    1  UNL1       -0.0511
     80 C          12.9292   -7.1307    0.0000 C.ar    1  UNL1       -0.0193
     81 C          13.7953   -5.6307    0.0000 C.ar    1  UNL1       -0.0193
     82 C          13.7953   -6.6307    0.0000 C.ar    1  UNL1        0.1240
     83 C          15.5273   -6.6307    0.0000 C.3     1  UNL1        0.2308
     84 C          15.5273   -5.6307    0.0000 C.3     1  UNL1        0.1454
     85 C          16.3933   -5.1307    0.0000 C.3     1  UNL1        0.1152
     86 C          17.2594   -6.6307    0.0000 C.3     1  UNL1        0.1140
     87 C          17.2594   -5.6307    0.0000 C.3     1  UNL1        0.1120
     88 C          18.1254   -7.1307    0.0000 C.3     1  UNL1        0.0731
     89 H           9.2839    2.2627    0.0000 H       1  UNL1        0.0315
     90 H           6.9115    3.0874    0.0000 H       1  UNL1        0.0312
     91 H           6.5920    1.0966    0.0000 H       1  UNL1        0.0271
     92 H           7.2055    0.5859    0.0000 H       1  UNL1        0.0271
     93 H           6.4499    2.6617    0.0000 H       1  UNL1        0.0268
     94 H           6.3083    1.8760    0.0000 H       1  UNL1        0.0268
     95 H          10.3045   -0.5872    0.0000 H       1  UNL1        0.0357
     96 H          10.4730    1.7157    0.0000 H       1  UNL1        0.0310
     97 H           9.8663    2.2327    0.0000 H       1  UNL1        0.0310
     98 H           9.6523    3.1040    0.0000 H       1  UNL1        0.0271
     99 H           9.8120    3.8861    0.0000 H       1  UNL1        0.0271
    100 H           7.4877   -0.2086    0.0000 H       1  UNL1        0.0299
    101 H           7.3340   -0.9919    0.0000 H       1  UNL1        0.0299
    102 H           8.1575   -2.2929    0.0000 H       1  UNL1        0.0605
    103 H           7.0538    1.0789    0.0000 H       1  UNL1        0.0235
    104 H           6.8203    0.2338    0.0000 H       1  UNL1        0.0235
    105 H           7.6654    0.0003    0.0000 H       1  UNL1        0.0235
    106 H           8.2593    5.2923    0.0000 H       1  UNL1        0.0602
    107 H          10.8061    0.5581    0.0000 H       1  UNL1        0.0572
    108 H           9.4096    1.9831    0.0000 H       1  UNL1        0.0235
    109 H          10.1355    2.4749    0.0000 H       1  UNL1        0.0235
    110 H           9.6437    3.2008    0.0000 H       1  UNL1        0.0235
    111 H           9.5326    4.7130    0.0000 H       1  UNL1        0.0290
    112 H           8.9311    5.2378    0.0000 H       1  UNL1        0.0290
    113 H           7.4752    0.5359    0.0000 H       1  UNL1        0.0238
    114 H           6.9667   -0.1784    0.0000 H       1  UNL1        0.0238
    115 H           7.6810   -0.6868    0.0000 H       1  UNL1        0.0238
    116 H          11.5922   -1.1247    0.0000 H       1  UNL1        0.0276
    117 H          10.9748   -0.6186    0.0000 H       1  UNL1        0.0276
    118 H           8.9853   -2.9896    0.0000 H       1  UNL1        0.0277
    119 H           9.5909   -3.5097    0.0000 H       1  UNL1        0.0277
    120 H           6.7874    5.1161    0.0000 H       1  UNL1        0.0236
    121 H           5.9136    5.0431    0.0000 H       1  UNL1        0.0236
    122 H           5.9867    4.1693    0.0000 H       1  UNL1        0.0236
    123 H           5.9998    4.2420    0.0000 H       1  UNL1        0.0236
    124 H           5.6262    3.4488    0.0000 H       1  UNL1        0.0236
    125 H           6.4194    3.0752    0.0000 H       1  UNL1        0.0236
    126 H          10.4492   -3.6679    0.0000 H       1  UNL1        0.0271
    127 H          11.2004   -3.3978    0.0000 H       1  UNL1        0.0271
    128 H           6.9139   -1.1236    0.0000 H       1  UNL1        0.2098
    129 H          12.5143   -2.4914    0.0000 H       1  UNL1        0.0235
    130 H          12.8818   -1.6953    0.0000 H       1  UNL1        0.0235
    131 H          12.0857   -1.3278    0.0000 H       1  UNL1        0.0235
    132 H          11.7335   -3.3716    0.0000 H       1  UNL1        0.0235
    133 H          12.6067   -3.2918    0.0000 H       1  UNL1        0.0235
    134 H          12.5269   -2.4186    0.0000 H       1  UNL1        0.0235
    135 H           7.5656    6.6396    0.0000 H       1  UNL1        0.0938
    136 H           9.7669    6.2251    0.0000 H       1  UNL1        0.0671
    137 H           8.2700   -4.4407    0.0000 H       1  UNL1        0.1097
    138 H          10.2132    7.5687    0.0000 H       1  UNL1        0.0648
    139 H           7.8861    8.3417    0.0000 H       1  UNL1        0.0741
    140 H           7.7331   -5.7507    0.0000 H       1  UNL1        0.0825
    141 H           9.2728    8.6270    0.0000 H       1  UNL1        0.0652
    142 H          10.0980    5.2816    0.0000 H       1  UNL1        0.2101
    143 H           6.3301   -5.9407    0.0000 H       1  UNL1        0.0663
    144 H           5.7890   -3.5480    0.0000 H       1  UNL1        0.0588
    145 H           5.3905   -4.2383    0.0000 H       1  UNL1        0.0588
    146 H           5.4641   -4.8207    0.0000 H       1  UNL1        0.0644
    147 H          11.1960    7.3837    0.0000 H       1  UNL1        0.2100
    148 H          10.7390    8.6858    0.0000 H       1  UNL1        0.2100
    149 H           4.5981   -5.3207    0.0000 H       1  UNL1        0.2100
    150 H           6.0010   -6.5107    0.0000 H       1  UNL1        0.0938
    151 H           6.9762    9.9407    0.0000 H       1  UNL1        0.2951
    152 H           6.0010   -8.7507    0.0000 H       1  UNL1        0.0671
    153 H          10.3312   -6.2507    0.0000 H       1  UNL1        0.0689
    154 H           4.5981   -8.9407    0.0000 H       1  UNL1        0.0648
    155 H           4.2690   -6.5107    0.0000 H       1  UNL1        0.0647
    156 H           4.2690   -8.7507    0.0000 H       1  UNL1        0.0647
    157 H           7.4040   -8.3207    0.0000 H       1  UNL1        0.2101
    158 H          11.1972   -4.5107    0.0000 H       1  UNL1        0.0626
    159 H           3.8015   -6.1557    0.0000 H       1  UNL1        0.0584
    160 H           3.0044   -6.1557    0.0000 H       1  UNL1        0.0584
    161 H           5.6720   -9.9407    0.0000 H       1  UNL1        0.2100
    162 H           3.4030   -9.2507    0.0000 H       1  UNL1        0.2100
    163 H           2.0000   -6.8207    0.0000 H       1  UNL1        0.2095
    164 H          11.5263   -6.9407    0.0000 H       1  UNL1        0.0625
    165 H          12.9292   -4.5107    0.0000 H       1  UNL1        0.0625
    166 H          12.9292   -7.7507    0.0000 H       1  UNL1        0.0654
    167 H          14.3322   -5.3207    0.0000 H       1  UNL1        0.0654
    168 H          15.5273   -7.2507    0.0000 H       1  UNL1        0.1084
    169 H          15.5273   -5.0107    0.0000 H       1  UNL1        0.0683
    170 H          16.9303   -4.8207    0.0000 H       1  UNL1        0.0648
    171 H          17.2594   -7.2507    0.0000 H       1  UNL1        0.0647
    172 H          17.7963   -5.9407    0.0000 H       1  UNL1        0.0647
    173 H          14.6613   -4.5107    0.0000 H       1  UNL1        0.2102
    174 H          18.7360   -7.2383    0.0000 H       1  UNL1        0.0584
    175 H          18.3374   -6.5480    0.0000 H       1  UNL1        0.0584
    176 H          16.9303   -3.8207    0.0000 H       1  UNL1        0.2100
    177 H          18.6623   -5.4407    0.0000 H       1  UNL1        0.2100
    178 H          18.6623   -8.4407    0.0000 H       1  UNL1        0.2095
@<TRIPOS>BOND
     1     1    43    1
     2     1    57    1
     3     2    41    1
     4     2   128    1
     5     3    54    1
     6     3    59    1
     7     4    54    2
     8     5    57    1
     9     5    61    1
    10     6    59    1
    11     6    65    1
    12     7    58    1
    13     7   142    1
    14     8    60    1
    15     8   147    1
    16     9    62    1
    17     9    68    1
    18    10    63    1
    19    10   148    1
    20    11    64    1
    21    11    69    1
    22    12    66    1
    23    12   149    1
    24    13    67    1
    25    13   151    1
    26    14    67    2
    27    15    69    1
    28    15    73    1
    29    16    68    2
    30    17    70    1
    31    17   157    1
    32    18    72    1
    33    18   161    1
    34    19    74    1
    35    19   162    1
    36    20    76    1
    37    20   163    1
    38    21    82    1
    39    21    83    1
    40    22    83    1
    41    22    86    1
    42    23    84    1
    43    23   173    1
    44    24    85    1
    45    24   176    1
    46    25    87    1
    47    25   177    1
    48    26    88    1
    49    26   178    1
    50    27    28    1
    51    27    30    1
    52    27    32    1
    53    27    42    1
    54    28    29    1
    55    28    37    1
    56    28    89    1
    57    29    31    1
    58    29    38    1
    59    29    45    1
    60    30    35    1
    61    30    39    1
    62    30    47    1
    63    31    33    1
    64    31    34    1
    65    31    90    1
    66    32    33    1
    67    32    91    1
    68    32    92    1
    69    33    93    1
    70    33    94    1
    71    34    43    1
    72    34    51    1
    73    34    52    1
    74    35    36    1
    75    35    44    2
    76    36    40    1
    77    36    48    1
    78    36    95    1
    79    37    44    1
    80    37    96    1
    81    37    97    1
    82    38    46    1
    83    38    98    1
    84    38    99    1
    85    39    41    1
    86    39   100    1
    87    39   101    1
    88    40    41    1
    89    40    49    1
    90    40    54    1
    91    41   102    1
    92    42   103    1
    93    42   104    1
    94    42   105    1
    95    43    46    1
    96    43   106    1
    97    44   107    1
    98    45   108    1
    99    45   109    1
   100    45   110    1
   101    46   111    1
   102    46   112    1
   103    47   113    1
   104    47   114    1
   105    47   115    1
   106    48    50    1
   107    48   116    1
   108    48   117    1
   109    49    53    1
   110    49   118    1
   111    49   119    1
   112    50    53    1
   113    50    55    1
   114    50    56    1
   115    51   120    1
   116    51   121    1
   117    51   122    1
   118    52   123    1
   119    52   124    1
   120    52   125    1
   121    53   126    1
   122    53   127    1
   123    55   129    1
   124    55   130    1
   125    55   131    1
   126    56   132    1
   127    56   133    1
   128    56   134    1
   129    57    58    1
   130    57   135    1
   131    58    60    1
   132    58   136    1
   133    59    62    1
   134    59   137    1
   135    60    63    1
   136    60   138    1
   137    61    63    1
   138    61    67    1
   139    61   139    1
   140    62    64    1
   141    62   140    1
   142    63   141    1
   143    64    66    1
   144    64   143    1
   145    65    66    1
   146    65   144    1
   147    65   145    1
   148    66   146    1
   149    68    71    1
   150    69    70    1
   151    69   150    1
   152    70    72    1
   153    70   152    1
   154    71    75    2
   155    71   153    1
   156    72    74    1
   157    72   154    1
   158    73    74    1
   159    73    76    1
   160    73   155    1
   161    74   156    1
   162    75    77    1
   163    75   158    1
   164    76   159    1
   165    76   160    1
   166    77    78   ar
   167    77    79   ar
   168    78    80   ar
   169    78   164    1
   170    79    81   ar
   171    79   165    1
   172    80    82   ar
   173    80   166    1
   174    81    82   ar
   175    81   167    1
   176    83    84    1
   177    83   168    1
   178    84    85    1
   179    84   169    1
   180    85    87    1
   181    85   170    1
   182    86    87    1
   183    86    88    1
   184    86   171    1
   185    87   172    1
   186    88   174    1
   187    88   175    1
