@<TRIPOS>MOLECULE
IMPHY013812
 18 18 0 0 0
SMALL
GASTEIGER

@<TRIPOS>ATOM
      1 O           6.0010    0.5950    0.0000 O.3     1  UNL1       -0.5057
      2 O           2.5369    0.5950    0.0000 O.3     1  UNL1       -0.5057
      3 O           4.2690   -2.4050    0.0000 O.3     1  UNL1       -0.5065
      4 O           5.1350    2.0950    0.0000 O.3     1  UNL1       -0.4770
      5 O           3.4030    2.0950    0.0000 O.2     1  UNL1       -0.2449
      6 C           4.2690    0.5950    0.0000 C.ar    1  UNL1        0.1415
      7 C           5.1350    0.0950    0.0000 C.ar    1  UNL1        0.1378
      8 C           3.4030    0.0950    0.0000 C.ar    1  UNL1        0.1378
      9 C           5.1350   -0.9050    0.0000 C.ar    1  UNL1        0.0224
     10 C           3.4030   -0.9050    0.0000 C.ar    1  UNL1        0.0224
     11 C           4.2690   -1.4050    0.0000 C.ar    1  UNL1        0.1238
     12 C           4.2690    1.5950    0.0000 C.2     1  UNL1        0.3440
     13 H           5.6720   -1.2150    0.0000 H       1  UNL1        0.0691
     14 H           2.8660   -1.2150    0.0000 H       1  UNL1        0.0691
     15 H           6.5380    0.2850    0.0000 H       1  UNL1        0.2922
     16 H           2.0000    0.2850    0.0000 H       1  UNL1        0.2922
     17 H           3.7320   -2.7150    0.0000 H       1  UNL1        0.2921
     18 H           5.1350    2.7150    0.0000 H       1  UNL1        0.2954
@<TRIPOS>BOND
     1     1     7    1
     2     1    15    1
     3     2     8    1
     4     2    16    1
     5     3    11    1
     6     3    17    1
     7     4    12    1
     8     4    18    1
     9     5    12    2
    10     6     7   ar
    11     6     8   ar
    12     6    12    1
    13     7     9   ar
    14     8    10   ar
    15     9    11   ar
    16     9    13    1
    17    10    11   ar
    18    10    14    1
