@<TRIPOS>MOLECULE
IMPHY011617
 91 93 0 0 0
SMALL
GASTEIGER

@<TRIPOS>ATOM
      1 O           8.8504    1.6033    0.0000 O.3     1  UNL1       -0.4538
      2 O           7.2382   -1.3028    0.0000 O.3     1  UNL1       -0.4569
      3 O           9.2030    2.1466    0.0000 O.3     1  UNL1       -0.4569
      4 O           3.7320    0.6807    0.0000 O.3     1  UNL1       -0.4570
      5 O           3.7320    3.6126    0.0000 O.3     1  UNL1       -0.4605
      6 O           9.5824    0.0335    0.0000 O.2     1  UNL1       -0.2511
      7 O           8.7828   -2.0864    0.0000 O.2     1  UNL1       -0.2450
      8 O           9.7030    4.0126    0.0000 O.2     1  UNL1       -0.2512
      9 O           3.7320   -1.0514    0.0000 O.2     1  UNL1       -0.2511
     10 O           2.8660    2.1126    0.0000 O.2     1  UNL1       -0.2512
     11 C           7.9441    1.1807    0.0000 C.3     1  UNL1        0.1604
     12 C           7.2370    0.4736    0.0000 C.3     1  UNL1        0.0583
     13 C           8.8287    0.7271    0.0000 C.3     1  UNL1       -0.0026
     14 C           8.6723   -0.2546    0.0000 C.3     1  UNL1       -0.0022
     15 C           7.6906   -0.4110    0.0000 C.3     1  UNL1        0.1161
     16 C           8.2030    2.1466    0.0000 C.3     1  UNL1        0.1491
     17 C           7.9441    3.1126    0.0000 C.3     1  UNL1        0.0153
     18 C           6.2711    0.2148    0.0000 C.2     1  UNL1       -0.0711
     19 C           9.3794   -0.9617    0.0000 C.3     1  UNL1       -0.0589
     20 C           5.3052    0.4736    0.0000 C.2     1  UNL1       -0.0360
     21 C           7.2370    3.8197    0.0000 C.2     1  UNL1       -0.0809
     22 C           8.4441    3.9786    0.0000 C.3     1  UNL1       -0.0554
     23 C           4.5981    1.1807    0.0000 C.3     1  UNL1        0.1273
     24 C           5.3052    3.8197    0.0000 C.3     1  UNL1        0.0203
     25 C           4.3393    2.1466    0.0000 C.3     1  UNL1        0.0263
     26 C           9.6696    1.0297    0.0000 C.2     1  UNL1        0.3046
     27 C           4.5981    3.1126    0.0000 C.3     1  UNL1        0.1152
     28 C           6.2711    4.0785    0.0000 C.2     1  UNL1       -0.0784
     29 C           7.7843   -2.1405    0.0000 C.2     1  UNL1        0.3395
     30 C           4.8052   -0.3924    0.0000 C.3     1  UNL1       -0.0403
     31 C           9.7030    3.0126    0.0000 C.2     1  UNL1        0.3043
     32 C           4.5981    4.5268    0.0000 C.3     1  UNL1       -0.0530
     33 C           5.3923    4.8158    0.0000 C.3     1  UNL1       -0.0530
     34 C          10.5759    1.4524    0.0000 C.3     1  UNL1        0.0333
     35 C           7.3318   -3.0323    0.0000 C.ar    1  UNL1        0.0590
     36 C          10.7030    3.0126    0.0000 C.3     1  UNL1        0.0332
     37 C           3.2321   -0.1854    0.0000 C.2     1  UNL1        0.3045
     38 C           6.3333   -3.0863    0.0000 C.ar    1  UNL1       -0.0478
     39 C           7.8779   -3.8700    0.0000 C.ar    1  UNL1       -0.0478
     40 C           2.8660    3.1126    0.0000 C.2     1  UNL1        0.3042
     41 C           2.2321   -0.1854    0.0000 C.3     1  UNL1        0.0333
     42 C           5.8808   -3.9781    0.0000 C.ar    1  UNL1       -0.0610
     43 C           7.4255   -4.7618    0.0000 C.ar    1  UNL1       -0.0610
     44 C           2.0000    3.6126    0.0000 C.3     1  UNL1        0.0332
     45 C           6.4269   -4.8158    0.0000 C.ar    1  UNL1       -0.0617
     46 H           6.8923   -0.3034    0.0000 H       1  UNL1        0.0419
     47 H           9.4273    0.5658    0.0000 H       1  UNL1        0.0309
     48 H           9.0520    1.3055    0.0000 H       1  UNL1        0.0309
     49 H           9.2621   -0.0633    0.0000 H       1  UNL1        0.0335
     50 H           8.0557   -0.9121    0.0000 H       1  UNL1        0.0744
     51 H           8.5804    2.6385    0.0000 H       1  UNL1        0.0780
     52 H           8.5588    3.0316    0.0000 H       1  UNL1        0.0377
     53 H           6.2711   -0.4052    0.0000 H       1  UNL1        0.0578
     54 H           8.9410   -1.4001    0.0000 H       1  UNL1        0.0234
     55 H           9.8178   -1.4001    0.0000 H       1  UNL1        0.0234
     56 H           9.8178   -0.5233    0.0000 H       1  UNL1        0.0234
     57 H           7.5470    4.3566    0.0000 H       1  UNL1        0.0573
     58 H           8.9811    3.6686    0.0000 H       1  UNL1        0.0237
     59 H           8.7541    4.5155    0.0000 H       1  UNL1        0.0237
     60 H           7.9072    4.2886    0.0000 H       1  UNL1        0.0237
     61 H           4.5172    0.5660    0.0000 H       1  UNL1        0.0783
     62 H           3.8314    2.5022    0.0000 H       1  UNL1        0.0340
     63 H           4.9593    2.1466    0.0000 H       1  UNL1        0.0340
     64 H           4.0253    2.8753    0.0000 H       1  UNL1        0.0744
     65 H           6.2711    4.6985    0.0000 H       1  UNL1        0.0576
     66 H           4.2682   -0.0824    0.0000 H       1  UNL1        0.0276
     67 H           4.4952   -0.9294    0.0000 H       1  UNL1        0.0276
     68 H           5.3421   -0.7024    0.0000 H       1  UNL1        0.0276
     69 H           6.0100    4.7618    0.0000 H       1  UNL1        0.0239
     70 H           5.4464    5.4335    0.0000 H       1  UNL1        0.0239
     71 H           4.7747    4.8699    0.0000 H       1  UNL1        0.0239
     72 H           5.0365    4.9652    0.0000 H       1  UNL1        0.0239
     73 H           4.1597    4.9652    0.0000 H       1  UNL1        0.0239
     74 H           4.1597    4.0884    0.0000 H       1  UNL1        0.0239
     75 H          10.8379    0.8904    0.0000 H       1  UNL1        0.0342
     76 H          11.1378    1.7144    0.0000 H       1  UNL1        0.0342
     77 H          10.3139    2.0143    0.0000 H       1  UNL1        0.0342
     78 H          10.7030    2.3926    0.0000 H       1  UNL1        0.0342
     79 H          11.3230    3.0126    0.0000 H       1  UNL1        0.0342
     80 H          10.7030    3.6326    0.0000 H       1  UNL1        0.0342
     81 H           5.9947   -2.5670    0.0000 H       1  UNL1        0.0626
     82 H           8.4970   -3.8365    0.0000 H       1  UNL1        0.0626
     83 H           2.2321    0.4346    0.0000 H       1  UNL1        0.0342
     84 H           1.6121   -0.1853    0.0000 H       1  UNL1        0.0342
     85 H           2.2321   -0.8054    0.0000 H       1  UNL1        0.0342
     86 H           5.2618   -4.0117    0.0000 H       1  UNL1        0.0618
     87 H           7.7640   -5.2812    0.0000 H       1  UNL1        0.0618
     88 H           2.3100    4.1495    0.0000 H       1  UNL1        0.0342
     89 H           1.4631    3.9226    0.0000 H       1  UNL1        0.0342
     90 H           1.6900    3.0756    0.0000 H       1  UNL1        0.0342
     91 H           6.1464   -5.3688    0.0000 H       1  UNL1        0.0618
@<TRIPOS>BOND
     1    11     1    1
     2     1    26    1
     3    15     2    1
     4     2    29    1
     5    16     3    1
     6     3    31    1
     7    23     4    1
     8     4    37    1
     9    27     5    1
    10     5    40    1
    11     6    26    2
    12     7    29    2
    13     8    31    2
    14     9    37    2
    15    10    40    2
    16    11    12    1
    17    11    13    1
    18    11    16    1
    19    12    15    1
    20    12    18    1
    21    12    46    1
    22    13    14    1
    23    13    47    1
    24    13    48    1
    25    14    15    1
    26    14    19    1
    27    14    49    1
    28    15    50    1
    29    16    17    1
    30    16    51    1
    31    17    21    1
    32    17    22    1
    33    17    52    1
    34    18    20    2
    35    18    53    1
    36    19    54    1
    37    19    55    1
    38    19    56    1
    39    20    23    1
    40    20    30    1
    41    21    28    2
    42    21    57    1
    43    22    58    1
    44    22    59    1
    45    22    60    1
    46    23    25    1
    47    23    61    1
    48    24    27    1
    49    24    28    1
    50    24    32    1
    51    24    33    1
    52    25    27    1
    53    25    62    1
    54    25    63    1
    55    26    34    1
    56    27    64    1
    57    28    65    1
    58    29    35    1
    59    30    66    1
    60    30    67    1
    61    30    68    1
    62    31    36    1
    63    32    72    1
    64    32    73    1
    65    32    74    1
    66    33    69    1
    67    33    70    1
    68    33    71    1
    69    34    75    1
    70    34    76    1
    71    34    77    1
    72    35    38   ar
    73    35    39   ar
    74    36    78    1
    75    36    79    1
    76    36    80    1
    77    37    41    1
    78    38    42   ar
    79    38    81    1
    80    39    43   ar
    81    39    82    1
    82    40    44    1
    83    41    83    1
    84    41    84    1
    85    41    85    1
    86    42    45   ar
    87    42    86    1
    88    43    45   ar
    89    43    87    1
    90    44    88    1
    91    44    89    1
    92    44    90    1
    93    45    91    1
