@<TRIPOS>MOLECULE
IMPHY017864
 40 42 0 0 0
SMALL
GASTEIGER

@<TRIPOS>ATOM
      1 O           3.1022    2.3243    0.0000 O.3     1  UNL1       -0.3875
      2 C           2.9986   -1.1493    0.0000 C.3     1  UNL1       -0.0220
      3 C           5.8153   -1.0641    0.0000 C.3     1  UNL1       -0.0254
      4 C           4.6752   -0.1070    0.0000 C.3     1  UNL1       -0.0286
      5 C           4.4164   -1.0729    0.0000 C.3     1  UNL1       -0.0085
      6 C           5.7037   -2.0675    0.0000 C.3     1  UNL1       -0.0312
      7 C           3.1706   -2.1441    0.0000 C.3     1  UNL1       -0.0468
      8 C           4.5967    1.3538    0.0000 C.3     1  UNL1       -0.0194
      9 C           3.1954    0.5448    0.0000 C.2     1  UNL1       -0.0446
     10 C           4.9617   -2.7520    0.0000 C.3     1  UNL1       -0.0476
     11 C           3.6022    1.4583    0.0000 C.3     1  UNL1        0.0766
     12 C           2.0000   -1.2030    0.0000 C.3     1  UNL1       -0.0587
     13 C           3.9526   -2.7826    0.0000 C.3     1  UNL1       -0.0520
     14 C           6.7035   -2.0869    0.0000 C.3     1  UNL1       -0.0595
     15 C           6.3119   -2.8613    0.0000 C.3     1  UNL1       -0.0595
     16 C           2.2173    0.3368    0.0000 C.2     1  UNL1       -0.0967
     17 H           6.3909   -0.8336    0.0000 H       1  UNL1        0.0315
     18 H           5.2299    0.1700    0.0000 H       1  UNL1        0.0310
     19 H           3.8542   -0.8115    0.0000 H       1  UNL1        0.0355
     20 H           2.5546   -2.0735    0.0000 H       1  UNL1        0.0271
     21 H           2.9295   -2.7153    0.0000 H       1  UNL1        0.0271
     22 H           5.2167    1.3543    0.0000 H       1  UNL1        0.0296
     23 H           4.6289    1.9729    0.0000 H       1  UNL1        0.0296
     24 H           4.8053   -3.3520    0.0000 H       1  UNL1        0.0271
     25 H           5.4934   -3.0710    0.0000 H       1  UNL1        0.0271
     26 H           2.9830    1.4258    0.0000 H       1  UNL1        0.0640
     27 H           1.9667   -0.5839    0.0000 H       1  UNL1        0.0235
     28 H           1.3809   -1.2364    0.0000 H       1  UNL1        0.0235
     29 H           2.0333   -1.8221    0.0000 H       1  UNL1        0.0235
     30 H           3.4412   -3.1330    0.0000 H       1  UNL1        0.0266
     31 H           4.1450   -3.3719    0.0000 H       1  UNL1        0.0266
     32 H           6.6915   -2.7068    0.0000 H       1  UNL1        0.0235
     33 H           7.3234   -2.0989    0.0000 H       1  UNL1        0.0235
     34 H           6.7156   -1.4670    0.0000 H       1  UNL1        0.0235
     35 H           5.8198   -3.2383    0.0000 H       1  UNL1        0.0235
     36 H           6.6890   -3.3534    0.0000 H       1  UNL1        0.0235
     37 H           6.8041   -2.4842    0.0000 H       1  UNL1        0.0235
     38 H           1.8024    0.7976    0.0000 H       1  UNL1        0.0535
     39 H           2.0257   -0.2528    0.0000 H       1  UNL1        0.0535
     40 H           3.4122    2.8613    0.0000 H       1  UNL1        0.2102
@<TRIPOS>BOND
     1     1    11    1
     2     1    40    1
     3     2     4    1
     4     2     5    1
     5     2     7    1
     6     2    12    1
     7     3     4    1
     8     3     5    1
     9     3     6    1
    10     3    17    1
    11     4     8    1
    12     4    18    1
    13     5     9    1
    14     5    19    1
    15     6    10    1
    16     6    14    1
    17     6    15    1
    18     7    13    1
    19     7    20    1
    20     7    21    1
    21     8    11    1
    22     8    22    1
    23     8    23    1
    24     9    11    1
    25     9    16    2
    26    10    13    1
    27    10    24    1
    28    10    25    1
    29    11    26    1
    30    12    27    1
    31    12    28    1
    32    12    29    1
    33    13    30    1
    34    13    31    1
    35    14    32    1
    36    14    33    1
    37    14    34    1
    38    15    35    1
    39    15    36    1
    40    15    37    1
    41    16    38    1
    42    16    39    1
