@<TRIPOS>MOLECULE
IMPHY009520
 74 75 0 0 0
SMALL
GASTEIGER

@<TRIPOS>ATOM
      1 O           6.0010   -7.0000    0.0000 O.3     1  UNL1       -0.4947
      2 O          11.1972    7.0000    0.0000 O.3     1  UNL1       -0.4947
      3 O           2.5369   -7.0000    0.0000 O.3     1  UNL1       -0.5064
      4 O           7.7331    7.0000    0.0000 O.3     1  UNL1       -0.5064
      5 C           6.8671   -0.5000    0.0000 C.3     1  UNL1       -0.0531
      6 C           6.8671    0.5000    0.0000 C.3     1  UNL1       -0.0531
      7 C           7.7331    1.0000    0.0000 C.3     1  UNL1       -0.0531
      8 C           6.0010   -1.0000    0.0000 C.3     1  UNL1       -0.0531
      9 C           7.7331    2.0000    0.0000 C.3     1  UNL1       -0.0530
     10 C           6.0010   -2.0000    0.0000 C.3     1  UNL1       -0.0530
     11 C           8.5991    2.5000    0.0000 C.3     1  UNL1       -0.0528
     12 C           5.1350   -2.5000    0.0000 C.3     1  UNL1       -0.0528
     13 C           8.5991    3.5000    0.0000 C.3     1  UNL1       -0.0491
     14 C           5.1350   -3.5000    0.0000 C.3     1  UNL1       -0.0491
     15 C           4.2690   -4.0000    0.0000 C.3     1  UNL1       -0.0275
     16 C           9.4651    4.0000    0.0000 C.3     1  UNL1       -0.0275
     17 C           9.4651    5.0000    0.0000 C.ar    1  UNL1       -0.0404
     18 C           4.2690   -5.0000    0.0000 C.ar    1  UNL1       -0.0404
     19 C           5.1350   -5.5000    0.0000 C.ar    1  UNL1       -0.0163
     20 C          10.3312    5.5000    0.0000 C.ar    1  UNL1       -0.0163
     21 C           3.4030   -5.5000    0.0000 C.ar    1  UNL1       -0.0165
     22 C           8.5991    5.5000    0.0000 C.ar    1  UNL1       -0.0165
     23 C          10.3312    6.5000    0.0000 C.ar    1  UNL1        0.1267
     24 C           5.1350   -6.5000    0.0000 C.ar    1  UNL1        0.1267
     25 C           8.5991    6.5000    0.0000 C.ar    1  UNL1        0.1235
     26 C           3.4030   -6.5000    0.0000 C.ar    1  UNL1        0.1235
     27 C           9.4651    7.0000    0.0000 C.ar    1  UNL1        0.0325
     28 C           4.2690   -7.0000    0.0000 C.ar    1  UNL1        0.0325
     29 C           4.2690   -8.0000    0.0000 C.3     1  UNL1       -0.0328
     30 C           9.4651    8.0000    0.0000 C.3     1  UNL1       -0.0328
     31 C           6.8671   -6.5000    0.0000 C.3     1  UNL1        0.0788
     32 C          12.0632    6.5000    0.0000 C.3     1  UNL1        0.0788
     33 H           7.0791   -1.0826    0.0000 H       1  UNL1        0.0265
     34 H           7.4776   -0.3923    0.0000 H       1  UNL1        0.0265
     35 H           6.6550    1.0826    0.0000 H       1  UNL1        0.0265
     36 H           6.2565    0.3923    0.0000 H       1  UNL1        0.0265
     37 H           7.9451    0.4174    0.0000 H       1  UNL1        0.0265
     38 H           8.3437    1.1077    0.0000 H       1  UNL1        0.0265
     39 H           5.7890   -0.4174    0.0000 H       1  UNL1        0.0265
     40 H           5.3905   -1.1077    0.0000 H       1  UNL1        0.0265
     41 H           7.5210    2.5826    0.0000 H       1  UNL1        0.0265
     42 H           7.1225    1.8923    0.0000 H       1  UNL1        0.0265
     43 H           6.2131   -2.5826    0.0000 H       1  UNL1        0.0265
     44 H           6.6116   -1.8923    0.0000 H       1  UNL1        0.0265
     45 H           8.8112    1.9174    0.0000 H       1  UNL1        0.0265
     46 H           9.2097    2.6077    0.0000 H       1  UNL1        0.0265
     47 H           4.9230   -1.9174    0.0000 H       1  UNL1        0.0265
     48 H           4.5244   -2.6077    0.0000 H       1  UNL1        0.0265
     49 H           8.3871    4.0826    0.0000 H       1  UNL1        0.0268
     50 H           7.9885    3.3923    0.0000 H       1  UNL1        0.0268
     51 H           5.3471   -4.0826    0.0000 H       1  UNL1        0.0268
     52 H           5.7456   -3.3923    0.0000 H       1  UNL1        0.0268
     53 H           9.6772    3.4174    0.0000 H       1  UNL1        0.0313
     54 H          10.0757    4.1077    0.0000 H       1  UNL1        0.0313
     55 H           4.0569   -3.4174    0.0000 H       1  UNL1        0.0313
     56 H           3.6584   -4.1077    0.0000 H       1  UNL1        0.0313
     57 H           5.6720   -5.1900    0.0000 H       1  UNL1        0.0657
     58 H          10.8681    5.1900    0.0000 H       1  UNL1        0.0657
     59 H           2.8660   -5.1900    0.0000 H       1  UNL1        0.0657
     60 H           8.0622    5.1900    0.0000 H       1  UNL1        0.0657
     61 H          10.0851    8.0000    0.0000 H       1  UNL1        0.0280
     62 H           9.4651    8.6200    0.0000 H       1  UNL1        0.0280
     63 H           3.6490   -8.0000    0.0000 H       1  UNL1        0.0280
     64 H           4.2690   -8.6200    0.0000 H       1  UNL1        0.0280
     65 H           4.8890   -8.0000    0.0000 H       1  UNL1        0.0280
     66 H           8.8451    8.0000    0.0000 H       1  UNL1        0.0280
     67 H           2.0000   -6.6900    0.0000 H       1  UNL1        0.2921
     68 H           7.1962    6.6900    0.0000 H       1  UNL1        0.2921
     69 H           7.1771   -7.0369    0.0000 H       1  UNL1        0.0660
     70 H           7.4040   -6.1900    0.0000 H       1  UNL1        0.0660
     71 H           6.5571   -5.9631    0.0000 H       1  UNL1        0.0660
     72 H          11.7532    5.9631    0.0000 H       1  UNL1        0.0660
     73 H          12.6002    6.1900    0.0000 H       1  UNL1        0.0660
     74 H          12.3732    7.0369    0.0000 H       1  UNL1        0.0660
@<TRIPOS>BOND
     1     1    24    1
     2     1    31    1
     3     2    23    1
     4     2    32    1
     5     3    26    1
     6     3    67    1
     7     4    25    1
     8     4    68    1
     9     5     6    1
    10     5     8    1
    11     5    33    1
    12     5    34    1
    13     6     7    1
    14     6    35    1
    15     6    36    1
    16     7     9    1
    17     7    37    1
    18     7    38    1
    19     8    10    1
    20     8    39    1
    21     8    40    1
    22     9    11    1
    23     9    41    1
    24     9    42    1
    25    10    12    1
    26    10    43    1
    27    10    44    1
    28    11    13    1
    29    11    45    1
    30    11    46    1
    31    12    14    1
    32    12    47    1
    33    12    48    1
    34    13    16    1
    35    13    49    1
    36    13    50    1
    37    14    15    1
    38    14    51    1
    39    14    52    1
    40    15    18    1
    41    15    55    1
    42    15    56    1
    43    16    17    1
    44    16    53    1
    45    16    54    1
    46    17    20   ar
    47    17    22   ar
    48    18    19   ar
    49    18    21   ar
    50    19    24   ar
    51    19    57    1
    52    20    23   ar
    53    20    58    1
    54    21    26   ar
    55    21    59    1
    56    22    25   ar
    57    22    60    1
    58    23    27   ar
    59    24    28   ar
    60    25    27   ar
    61    26    28   ar
    62    27    30    1
    63    28    29    1
    64    29    63    1
    65    29    64    1
    66    29    65    1
    67    30    61    1
    68    30    62    1
    69    30    66    1
    70    31    69    1
    71    31    70    1
    72    31    71    1
    73    32    72    1
    74    32    73    1
    75    32    74    1
