@<TRIPOS>MOLECULE
IMPHY000143
 48 50 0 0 0
SMALL
GASTEIGER

@<TRIPOS>ATOM
      1 O4*         6.1346    2.7969    0.0000 O.3     1  UNL1       -0.3457
      2 O2*         8.4806    1.7050    0.0000 O.3     1  UNL1       -0.3847
      3 O3*         8.4843    3.8806    0.0000 O.3     1  UNL1       -0.3864
      4 O5*         7.0868    5.2984    0.0000 O.3     1  UNL1       -0.3924
      5 O           2.0000   -5.2684    0.0000 O.3     1  UNL1       -0.3947
      6 N           6.4103    1.0363    0.0000 N.ar    1  UNL1       -0.2855
      7 N           6.4103   -0.5732    0.0000 N.ar    1  UNL1       -0.2306
      8 N           4.5981    1.2316    0.0000 N.ar    1  UNL1       -0.2159
      9 N           4.5981   -1.7684    0.0000 N.pl3   1  UNL1       -0.3272
     10 N           3.7320   -0.2684    0.0000 N.ar    1  UNL1       -0.2186
     11 C2*         7.6726    2.2942    0.0000 C.3     1  UNL1        0.1285
     12 C1*         6.7210    1.9868    0.0000 C.3     1  UNL1        0.1667
     13 C3*         7.6743    3.2942    0.0000 C.3     1  UNL1        0.1135
     14 C4*         6.7238    3.6049    0.0000 C.3     1  UNL1        0.1126
     15 C5*         6.4164    4.5564    0.0000 C.3     1  UNL1        0.0730
     16 C           5.4641    0.7316    0.0000 C.ar    1  UNL1        0.1674
     17 C           6.9939    0.2316    0.0000 C.ar    1  UNL1        0.1004
     18 C           5.4641   -0.2684    0.0000 C.ar    1  UNL1        0.1475
     19 C           4.5981   -0.7684    0.0000 C.ar    1  UNL1        0.1497
     20 C           3.7320   -3.2684    0.0000 C.3     1  UNL1       -0.0328
     21 C           2.8660   -3.7684    0.0000 C.3     1  UNL1       -0.0192
     22 C           3.7320   -2.2684    0.0000 C.3     1  UNL1        0.0108
     23 C           2.8660   -4.7684    0.0000 C.3     1  UNL1        0.0468
     24 C           2.0000   -3.2684    0.0000 C.3     1  UNL1       -0.0603
     25 C           3.7320    0.7316    0.0000 C.ar    1  UNL1        0.1205
     26 H2*         8.2255    2.5747    0.0000 H       1  UNL1        0.0665
     27 H1*         6.1085    1.8909    0.0000 H       1  UNL1        0.0866
     28 H3*         7.5784    3.9067    0.0000 H       1  UNL1        0.0647
     29 H4*         6.1116    3.7029    0.0000 H       1  UNL1        0.0647
     30 H5*1        6.0356    5.0457    0.0000 H       1  UNL1        0.0584
     31 H5*2        5.8685    4.2663    0.0000 H       1  UNL1        0.0584
     32 H2*         9.0474    1.9562    0.0000 H       1  UNL1        0.2101
     33 H3*         9.0503    3.6274    0.0000 H       1  UNL1        0.2100
     34 H           7.6139    0.2316    0.0000 H       1  UNL1        0.1030
     35 H           3.9441   -3.8510    0.0000 H       1  UNL1        0.0284
     36 H           4.3426   -3.1608    0.0000 H       1  UNL1        0.0284
     37 H           2.8660   -2.9184    0.0000 H       1  UNL1        0.0321
     38 H           3.5200   -1.6858    0.0000 H       1  UNL1        0.0462
     39 H           3.1215   -2.3761    0.0000 H       1  UNL1        0.0462
     40 H5*         6.8963    5.8884    0.0000 H       1  UNL1        0.2095
     41 H           5.1350   -2.0784    0.0000 H       1  UNL1        0.1475
     42 H           3.0781   -5.3510    0.0000 H       1  UNL1        0.0560
     43 H           3.4766   -4.6608    0.0000 H       1  UNL1        0.0560
     44 H           2.3100   -2.7315    0.0000 H       1  UNL1        0.0233
     45 H           1.4631   -2.9584    0.0000 H       1  UNL1        0.0233
     46 H           1.6900   -3.8054    0.0000 H       1  UNL1        0.0233
     47 H           3.1951    1.0416    0.0000 H       1  UNL1        0.1048
     48 H           2.0000   -5.8884    0.0000 H       1  UNL1        0.2094
@<TRIPOS>BOND
     1     1    12    1
     2     1    14    1
     3    11     2    1
     4     2    32    1
     5    13     3    1
     6     3    33    1
     7     4    15    1
     8     4    40    1
     9     5    23    1
    10     5    48    1
    11    12     6    1
    12     6    16   ar
    13     6    17   ar
    14     7    17   ar
    15     7    18   ar
    16     8    16   ar
    17     8    25   ar
    18     9    19    1
    19     9    22    1
    20     9    41    1
    21    10    19   ar
    22    10    25   ar
    23    11    12    1
    24    11    13    1
    25    11    26    1
    26    12    27    1
    27    13    14    1
    28    13    28    1
    29    14    15    1
    30    14    29    1
    31    15    30    1
    32    15    31    1
    33    16    18   ar
    34    17    34    1
    35    18    19   ar
    36    20    21    1
    37    20    22    1
    38    20    35    1
    39    20    36    1
    40    21    23    1
    41    21    24    1
    42    21    37    1
    43    22    38    1
    44    22    39    1
    45    23    42    1
    46    23    43    1
    47    24    44    1
    48    24    45    1
    49    24    46    1
    50    25    47    1
