@<TRIPOS>MOLECULE
IMPHY001836
 23 23 0 0 0
SMALL
GASTEIGER

@<TRIPOS>ATOM
      1 N           3.7320    2.0000    0.0000 N.3     1  UNL1       -0.3187
      2 C           2.8660    0.5000    0.0000 C.3     1  UNL1       -0.0151
      3 C           3.7320    1.0000    0.0000 C.3     1  UNL1       -0.0004
      4 C           2.8660   -0.5000    0.0000 C.ar    1  UNL1       -0.0462
      5 C           2.0000   -1.0000    0.0000 C.ar    1  UNL1       -0.0585
      6 C           3.7320   -1.0000    0.0000 C.ar    1  UNL1       -0.0585
      7 C           2.0000   -2.0000    0.0000 C.ar    1  UNL1       -0.0615
      8 C           3.7320   -2.0000    0.0000 C.ar    1  UNL1       -0.0615
      9 C           4.5981    2.5000    0.0000 C.3     1  UNL1       -0.0158
     10 C           2.8660   -2.5000    0.0000 C.ar    1  UNL1       -0.0617
     11 H           2.6540    1.0826    0.0000 H       1  UNL1        0.0325
     12 H           2.2554    0.3923    0.0000 H       1  UNL1        0.0325
     13 H           3.9441    0.4174    0.0000 H       1  UNL1        0.0427
     14 H           4.3426    1.1077    0.0000 H       1  UNL1        0.0427
     15 H           3.1951    2.3100    0.0000 H       1  UNL1        0.1216
     16 H           1.4631   -0.6900    0.0000 H       1  UNL1        0.0620
     17 H           4.2690   -0.6900    0.0000 H       1  UNL1        0.0620
     18 H           1.4631   -2.3100    0.0000 H       1  UNL1        0.0618
     19 H           4.2690   -2.3100    0.0000 H       1  UNL1        0.0618
     20 H           4.9081    1.9631    0.0000 H       1  UNL1        0.0388
     21 H           5.1350    2.8100    0.0000 H       1  UNL1        0.0388
     22 H           4.2881    3.0369    0.0000 H       1  UNL1        0.0388
     23 H           2.8660   -3.1200    0.0000 H       1  UNL1        0.0618
@<TRIPOS>BOND
     1     1     3    1
     2     1     9    1
     3     1    15    1
     4     2     3    1
     5     2     4    1
     6     2    11    1
     7     2    12    1
     8     3    13    1
     9     3    14    1
    10     4     5   ar
    11     4     6   ar
    12     5     7   ar
    13     5    16    1
    14     6     8   ar
    15     6    17    1
    16     7    10   ar
    17     7    18    1
    18     8    10   ar
    19     8    19    1
    20     9    20    1
    21     9    21    1
    22     9    22    1
    23    10    23    1
