@<TRIPOS>MOLECULE
IMPHY005472
 32 34 0 0 0
SMALL
GASTEIGER

@<TRIPOS>ATOM
      1 O           6.0682   -0.0950    0.0000 O.2     1  UNL1       -0.4508
      2 O           7.8003    1.9050    0.0000 O.3     1  UNL1       -0.5007
      3 O           6.0682    2.9050    0.0000 O.2     1  UNL1       -0.2831
      4 O          10.3984    0.4050    0.0000 O.3     1  UNL1       -0.5032
      5 O           8.6663   -2.5950    0.0000 O.3     1  UNL1       -0.5032
      6 O           2.5381   -0.1192    0.0000 O.3     1  UNL1       -0.5066
      7 O          10.3984   -1.5950    0.0000 O.3     1  UNL1       -0.5009
      8 C           6.9343    0.4050    0.0000 C.ar    1  UNL1        0.1808
      9 C           5.2022    1.4050    0.0000 C.ar    1  UNL1        0.0679
     10 C           7.8003   -0.0950    0.0000 C.ar    1  UNL1        0.0282
     11 C           5.2022    0.4050    0.0000 C.ar    1  UNL1        0.1430
     12 C           6.9343    1.4050    0.0000 C.ar    1  UNL1        0.2081
     13 C           6.0682    1.9050    0.0000 C.ar    1  UNL1        0.2343
     14 C           7.8003   -1.0950    0.0000 C.ar    1  UNL1       -0.0055
     15 C           8.6663    0.4050    0.0000 C.ar    1  UNL1       -0.0055
     16 C           4.3083    1.9397    0.0000 C.ar    1  UNL1       -0.0438
     17 C           4.3083   -0.1297    0.0000 C.ar    1  UNL1        0.0229
     18 C           9.5323   -0.0950    0.0000 C.ar    1  UNL1        0.1626
     19 C           8.6663   -1.5950    0.0000 C.ar    1  UNL1        0.1626
     20 C           3.4022    0.3842    0.0000 C.ar    1  UNL1        0.1204
     21 C           3.4022    1.4258    0.0000 C.ar    1  UNL1       -0.0193
     22 C           9.5323   -1.0950    0.0000 C.ar    1  UNL1        0.2006
     23 H           7.2634   -1.4050    0.0000 H       1  UNL1        0.0662
     24 H           8.6663    1.0250    0.0000 H       1  UNL1        0.0662
     25 H           4.3154    2.5596    0.0000 H       1  UNL1        0.0627
     26 H           4.3154   -0.7496    0.0000 H       1  UNL1        0.0691
     27 H           2.8665    1.7379    0.0000 H       1  UNL1        0.0654
     28 H           7.8003    2.5250    0.0000 H       1  UNL1        0.2924
     29 H          10.3984    1.0250    0.0000 H       1  UNL1        0.2923
     30 H           8.1294   -2.9050    0.0000 H       1  UNL1        0.2923
     31 H           2.0000    0.1888    0.0000 H       1  UNL1        0.2921
     32 H          10.3984   -2.2150    0.0000 H       1  UNL1        0.2924
@<TRIPOS>BOND
     1     1     8   ar
     2     1    11   ar
     3     2    12    1
     4     2    28    1
     5     3    13    2
     6     4    18    1
     7     4    29    1
     8     5    19    1
     9     5    30    1
    10     6    20    1
    11     6    31    1
    12     7    22    1
    13     7    32    1
    14     8    10    1
    15     8    12   ar
    16     9    11   ar
    17     9    13   ar
    18     9    16   ar
    19    10    14   ar
    20    10    15   ar
    21    11    17   ar
    22    12    13   ar
    23    14    19   ar
    24    14    23    1
    25    15    18   ar
    26    15    24    1
    27    16    21   ar
    28    16    25    1
    29    17    20   ar
    30    17    26    1
    31    18    22   ar
    32    19    22   ar
    33    20    21   ar
    34    21    27    1
