@<TRIPOS>MOLECULE
IMPHY014897
 120 126 0 0 0
SMALL
GASTEIGER

@<TRIPOS>ATOM
      1 O           7.8620    4.9944    0.0000 O.3     1  UNL1       -0.3443
      2 O           4.9863   -2.0513    0.0000 O.3     1  UNL1       -0.3906
      3 O           6.0010   -4.2642    0.0000 O.3     1  UNL1       -0.4318
      4 O           5.4100    4.3310    0.0000 O.3     1  UNL1       -0.4802
      5 O           6.9134    5.1912    0.0000 O.2     1  UNL1       -0.2503
      6 O           5.0162   -3.4378    0.0000 O.2     1  UNL1       -0.2500
      7 O           8.7453    6.4843    0.0000 O.3     1  UNL1       -0.3461
      8 O           4.2690   -4.2642    0.0000 O.3     1  UNL1       -0.3312
      9 O           9.5824    3.9744    0.0000 O.3     1  UNL1       -0.3841
     10 O          11.3259    4.9543    0.0000 O.3     1  UNL1       -0.3864
     11 O           6.0010   -6.2642    0.0000 O.3     1  UNL1       -0.3829
     12 O          11.3490    6.9542    0.0000 O.3     1  UNL1       -0.3869
     13 O           4.2690   -7.2642    0.0000 O.3     1  UNL1       -0.3864
     14 O           2.5369   -6.2642    0.0000 O.3     1  UNL1       -0.3865
     15 O           2.5369   -3.2642    0.0000 O.3     1  UNL1       -0.3924
     16 C           6.9067    0.3049    0.0000 C.3     1  UNL1       -0.0193
     17 C           7.7765    0.7982    0.0000 C.3     1  UNL1       -0.0257
     18 C           7.8006    1.8396    0.0000 C.3     1  UNL1       -0.0244
     19 C           6.8990   -0.6951    0.0000 C.3     1  UNL1       -0.0028
     20 C           6.9067    2.3742    0.0000 C.3     1  UNL1       -0.0174
     21 C           6.0006    0.8187    0.0000 C.3     1  UNL1       -0.0463
     22 C           7.7611   -1.2017    0.0000 C.2     1  UNL1       -0.0627
     23 C           6.0006    1.8604    0.0000 C.3     1  UNL1       -0.0481
     24 C           7.7691   -2.2433    0.0000 C.3     1  UNL1       -0.0007
     25 C           6.9067    3.4592    0.0000 C.3     1  UNL1        0.0941
     26 C           5.9851   -1.1949    0.0000 C.3     1  UNL1       -0.0162
     27 C           8.6387    0.2915    0.0000 C.3     1  UNL1       -0.0306
     28 C           6.8671   -2.7642    0.0000 C.3     1  UNL1        0.1000
     29 C           8.7565    2.3528    0.0000 C.3     1  UNL1       -0.0447
     30 C           5.9690   -2.2364    0.0000 C.3     1  UNL1        0.0723
     31 C           5.9206    0.1389    0.0000 C.3     1  UNL1       -0.0585
     32 C           8.6310   -0.7084    0.0000 C.2     1  UNL1       -0.0836
     33 C           7.8505    3.9944    0.0000 C.3     1  UNL1        0.0775
     34 C           8.6588    1.3263    0.0000 C.3     1  UNL1       -0.0590
     35 C           5.9155   -0.5138    0.0000 C.3     1  UNL1       -0.0552
     36 C           8.7816    3.4375    0.0000 C.3     1  UNL1       -0.0249
     37 C           8.7170   -2.7713    0.0000 C.3     1  UNL1       -0.0402
     38 C           6.8503   -3.8490    0.0000 C.3     1  UNL1       -0.0338
     39 C           8.7254   -3.8562    0.0000 C.3     1  UNL1       -0.0343
     40 C           7.7858   -4.3987    0.0000 C.3     1  UNL1       -0.0467
     41 C           5.9067    3.4631    0.0000 C.3     1  UNL1       -0.0467
     42 C           6.4100    4.3272    0.0000 C.2     1  UNL1        0.3135
     43 C           6.0010   -3.2642    0.0000 C.2     1  UNL1        0.3186
     44 C           9.7254   -3.8524    0.0000 C.3     1  UNL1       -0.0598
     45 C           9.2287   -4.7203    0.0000 C.3     1  UNL1       -0.0598
     46 C           8.7338    5.4843    0.0000 C.3     1  UNL1        0.1878
     47 C           9.5940    4.9744    0.0000 C.3     1  UNL1        0.1341
     48 C           5.1350   -4.7642    0.0000 C.3     1  UNL1        0.2337
     49 C          10.4657    5.4643    0.0000 C.3     1  UNL1        0.1137
     50 C           5.1350   -5.7642    0.0000 C.3     1  UNL1        0.1455
     51 C           9.6171    6.9742    0.0000 C.3     1  UNL1        0.0792
     52 C          10.4773    6.4642    0.0000 C.3     1  UNL1        0.1069
     53 C           4.2690   -6.2642    0.0000 C.3     1  UNL1        0.1152
     54 C           3.4030   -4.7642    0.0000 C.3     1  UNL1        0.1140
     55 C           3.4030   -5.7642    0.0000 C.3     1  UNL1        0.1120
     56 C           2.5369   -4.2642    0.0000 C.3     1  UNL1        0.0731
     57 H           8.3182    1.0999    0.0000 H       1  UNL1        0.0315
     58 H           6.3709    2.6863    0.0000 H       1  UNL1        0.0317
     59 H           5.3898    0.9248    0.0000 H       1  UNL1        0.0271
     60 H           5.7916    0.2350    0.0000 H       1  UNL1        0.0271
     61 H           5.7916    2.4441    0.0000 H       1  UNL1        0.0269
     62 H           5.3898    1.7543    0.0000 H       1  UNL1        0.0269
     63 H           8.5003   -1.8098    0.0000 H       1  UNL1        0.0357
     64 H           5.7850   -0.6080    0.0000 H       1  UNL1        0.0299
     65 H           5.3727   -1.2916    0.0000 H       1  UNL1        0.0299
     66 H           9.2484    0.1792    0.0000 H       1  UNL1        0.0310
     67 H           8.8552    0.8725    0.0000 H       1  UNL1        0.0310
     68 H           8.9520    1.7645    0.0000 H       1  UNL1        0.0271
     69 H           9.3697    2.4448    0.0000 H       1  UNL1        0.0271
     70 H           5.7514   -2.8169    0.0000 H       1  UNL1        0.0605
     71 H           5.8176    0.7503    0.0000 H       1  UNL1        0.0235
     72 H           5.3092    0.0360    0.0000 H       1  UNL1        0.0235
     73 H           6.0235   -0.4725    0.0000 H       1  UNL1        0.0235
     74 H           9.1655   -1.0226    0.0000 H       1  UNL1        0.0572
     75 H           7.3165    4.3096    0.0000 H       1  UNL1        0.0608
     76 H           8.3406    0.7942    0.0000 H       1  UNL1        0.0235
     77 H           9.1909    1.0080    0.0000 H       1  UNL1        0.0235
     78 H           8.9771    1.8584    0.0000 H       1  UNL1        0.0235
     79 H           6.0279    0.0959    0.0000 H       1  UNL1        0.0238
     80 H           5.3058   -0.4015    0.0000 H       1  UNL1        0.0238
     81 H           5.8032   -1.1236    0.0000 H       1  UNL1        0.0238
     82 H           9.3899    3.3173    0.0000 H       1  UNL1        0.0291
     83 H           9.0041    4.0162    0.0000 H       1  UNL1        0.0291
     84 H           9.3287   -2.8727    0.0000 H       1  UNL1        0.0276
     85 H           8.9216   -2.1860    0.0000 H       1  UNL1        0.0276
     86 H           6.2412   -3.7335    0.0000 H       1  UNL1        0.0277
     87 H           6.6323   -4.4294    0.0000 H       1  UNL1        0.0277
     88 H           7.3848   -4.8716    0.0000 H       1  UNL1        0.0271
     89 H           8.1831   -4.8747    0.0000 H       1  UNL1        0.0271
     90 H           5.9091    4.0831    0.0000 H       1  UNL1        0.0241
     91 H           5.2867    3.4655    0.0000 H       1  UNL1        0.0241
     92 H           5.9043    2.8431    0.0000 H       1  UNL1        0.0241
     93 H           4.7810   -1.4663    0.0000 H       1  UNL1        0.2098
     94 H           9.7278   -4.4724    0.0000 H       1  UNL1        0.0235
     95 H          10.3454   -3.8500    0.0000 H       1  UNL1        0.0235
     96 H           9.7230   -3.2324    0.0000 H       1  UNL1        0.0235
     97 H           8.6930   -5.0324    0.0000 H       1  UNL1        0.0235
     98 H           9.5408   -5.2561    0.0000 H       1  UNL1        0.0235
     99 H           9.7645   -4.4083    0.0000 H       1  UNL1        0.0235
    100 H           8.2005    5.8005    0.0000 H       1  UNL1        0.0937
    101 H           5.1021    4.8691    0.0000 H       1  UNL1        0.2951
    102 H          10.1273    4.6582    0.0000 H       1  UNL1        0.0671
    103 H           5.1350   -4.1442    0.0000 H       1  UNL1        0.1085
    104 H          11.0062    5.7681    0.0000 H       1  UNL1        0.0647
    105 H           5.1350   -6.3842    0.0000 H       1  UNL1        0.0683
    106 H          10.0211    7.4445    0.0000 H       1  UNL1        0.0587
    107 H           9.2241    7.4538    0.0000 H       1  UNL1        0.0587
    108 H          10.4844    7.0842    0.0000 H       1  UNL1        0.0643
    109 H           3.7320   -6.5742    0.0000 H       1  UNL1        0.0648
    110 H          10.1157    3.6582    0.0000 H       1  UNL1        0.2101
    111 H           3.4030   -4.1442    0.0000 H       1  UNL1        0.0647
    112 H           3.4030   -6.3842    0.0000 H       1  UNL1        0.0647
    113 H          11.8664    5.2581    0.0000 H       1  UNL1        0.2100
    114 H           6.5380   -5.9542    0.0000 H       1  UNL1        0.2102
    115 H          11.3562    7.5742    0.0000 H       1  UNL1        0.2100
    116 H           1.9264   -4.1565    0.0000 H       1  UNL1        0.0584
    117 H           2.3249   -4.8468    0.0000 H       1  UNL1        0.0584
    118 H           3.7320   -7.5742    0.0000 H       1  UNL1        0.2100
    119 H           2.0000   -5.9542    0.0000 H       1  UNL1        0.2100
    120 H           2.0000   -2.9542    0.0000 H       1  UNL1        0.2095
@<TRIPOS>BOND
     1    33     1    1
     2    46     1    1
     3    30     2    1
     4     2    93    1
     5     3    43    1
     6    48     3    1
     7     4    42    1
     8     4   101    1
     9     5    42    2
    10     6    43    2
    11     7    46    1
    12     7    51    1
    13     8    48    1
    14     8    54    1
    15    47     9    1
    16     9   110    1
    17    49    10    1
    18    10   113    1
    19    50    11    1
    20    11   114    1
    21    52    12    1
    22    12   115    1
    23    53    13    1
    24    13   118    1
    25    55    14    1
    26    14   119    1
    27    15    56    1
    28    15   120    1
    29    16    17    1
    30    16    19    1
    31    16    21    1
    32    16    31    1
    33    17    18    1
    34    17    27    1
    35    17    57    1
    36    18    20    1
    37    18    29    1
    38    18    34    1
    39    19    22    1
    40    19    26    1
    41    19    35    1
    42    20    23    1
    43    20    25    1
    44    20    58    1
    45    21    23    1
    46    21    59    1
    47    21    60    1
    48    22    24    1
    49    22    32    2
    50    23    61    1
    51    23    62    1
    52    24    28    1
    53    24    37    1
    54    24    63    1
    55    25    33    1
    56    25    41    1
    57    25    42    1
    58    26    30    1
    59    26    64    1
    60    26    65    1
    61    27    32    1
    62    27    66    1
    63    27    67    1
    64    28    30    1
    65    28    38    1
    66    28    43    1
    67    29    36    1
    68    29    68    1
    69    29    69    1
    70    30    70    1
    71    31    71    1
    72    31    72    1
    73    31    73    1
    74    32    74    1
    75    33    36    1
    76    33    75    1
    77    34    76    1
    78    34    77    1
    79    34    78    1
    80    35    79    1
    81    35    80    1
    82    35    81    1
    83    36    82    1
    84    36    83    1
    85    37    39    1
    86    37    84    1
    87    37    85    1
    88    38    40    1
    89    38    86    1
    90    38    87    1
    91    39    40    1
    92    39    44    1
    93    39    45    1
    94    40    88    1
    95    40    89    1
    96    41    90    1
    97    41    91    1
    98    41    92    1
    99    44    94    1
   100    44    95    1
   101    44    96    1
   102    45    97    1
   103    45    98    1
   104    45    99    1
   105    46    47    1
   106    46   100    1
   107    47    49    1
   108    47   102    1
   109    48    50    1
   110    48   103    1
   111    49    52    1
   112    49   104    1
   113    50    53    1
   114    50   105    1
   115    51    52    1
   116    51   106    1
   117    51   107    1
   118    52   108    1
   119    53    55    1
   120    53   109    1
   121    54    55    1
   122    54    56    1
   123    54   111    1
   124    55   112    1
   125    56   116    1
   126    56   117    1
