@<TRIPOS>MOLECULE
IMPHY000916
 35 36 0 0 0
SMALL
GASTEIGER

@<TRIPOS>ATOM
      1 O           4.2690    0.3038    0.0000 O.3     1  UNL1       -0.3405
      2 O           6.0010    0.3038    0.0000 O.3     1  UNL1       -0.3447
      3 O           4.2690   -2.6962    0.0000 O.3     1  UNL1       -0.3864
      4 O           2.5369   -1.6962    0.0000 O.3     1  UNL1       -0.3865
      5 O           6.0010   -1.6962    0.0000 O.3     1  UNL1       -0.3841
      6 O           2.5369    1.3038    0.0000 O.3     1  UNL1       -0.3924
      7 O           7.7806    1.3970    0.0000 O.3     1  UNL1       -0.4518
      8 O           9.4443    2.0357    0.0000 O.2     1  UNL1       -0.2456
      9 C           4.2690   -1.6962    0.0000 C.3     1  UNL1        0.1141
     10 C           3.4030   -1.1962    0.0000 C.3     1  UNL1        0.1119
     11 C           5.1350   -1.1962    0.0000 C.3     1  UNL1        0.1341
     12 C           3.4030   -0.1962    0.0000 C.3     1  UNL1        0.1130
     13 C           5.1350   -0.1962    0.0000 C.3     1  UNL1        0.1881
     14 C           2.5369    0.3038    0.0000 C.3     1  UNL1        0.0730
     15 C           6.0010    1.3038    0.0000 C.3     1  UNL1        0.0914
     16 C           6.8671    1.8038    0.0000 C.3     1  UNL1        0.1453
     17 C           6.9716    2.7983    0.0000 C.2     1  UNL1       -0.0350
     18 C           7.9497    3.0062    0.0000 C.2     1  UNL1        0.0221
     19 C           8.4497    2.1402    0.0000 C.2     1  UNL1        0.3324
     20 H           4.8059   -2.0062    0.0000 H       1  UNL1        0.0648
     21 H           3.4030   -1.8162    0.0000 H       1  UNL1        0.0647
     22 H           5.6720   -0.8862    0.0000 H       1  UNL1        0.0671
     23 H           3.4030    0.4238    0.0000 H       1  UNL1        0.0647
     24 H           5.1350    0.4238    0.0000 H       1  UNL1        0.0937
     25 H           1.9264    0.4114    0.0000 H       1  UNL1        0.0584
     26 H           2.3249   -0.2788    0.0000 H       1  UNL1        0.0584
     27 H           5.7890    1.8864    0.0000 H       1  UNL1        0.0601
     28 H           5.3905    1.1961    0.0000 H       1  UNL1        0.0601
     29 H           3.7320   -3.0062    0.0000 H       1  UNL1        0.2100
     30 H           2.0000   -1.3862    0.0000 H       1  UNL1        0.2100
     31 H           6.5380   -1.3862    0.0000 H       1  UNL1        0.2101
     32 H           6.8995    1.1846    0.0000 H       1  UNL1        0.0803
     33 H           2.0000    1.6138    0.0000 H       1  UNL1        0.2095
     34 H           6.5108    3.2132    0.0000 H       1  UNL1        0.0611
     35 H           8.2019    3.5726    0.0000 H       1  UNL1        0.0687
@<TRIPOS>BOND
     1     1    12    1
     2     1    13    1
     3    13     2    1
     4     2    15    1
     5     9     3    1
     6     3    29    1
     7    10     4    1
     8     4    30    1
     9    11     5    1
    10     5    31    1
    11     6    14    1
    12     6    33    1
    13     7    16    1
    14     7    19    1
    15     8    19    2
    16     9    10    1
    17     9    11    1
    18     9    20    1
    19    10    12    1
    20    10    21    1
    21    11    13    1
    22    11    22    1
    23    12    14    1
    24    12    23    1
    25    13    24    1
    26    14    25    1
    27    14    26    1
    28    16    15    1
    29    15    27    1
    30    15    28    1
    31    16    17    1
    32    16    32    1
    33    17    18    2
    34    17    34    1
    35    18    19    1
    36    18    35    1
