@<TRIPOS>MOLECULE
IMPHY015591
 90 90 0 0 0
SMALL
GASTEIGER

@<TRIPOS>ATOM
      1 SI          7.2960    0.7500    0.0000 Si      1  UNL1        0.0000
      2 SI          6.4300    2.2500    0.0000 Si      1  UNL1        0.0000
      3 SI          8.1621   -0.7500    0.0000 Si      1  UNL1        0.0000
      4 SI          4.6980    2.2500    0.0000 Si      1  UNL1        0.0000
      5 SI          7.2960   -2.2500    0.0000 Si      1  UNL1        0.0000
      6 SI          2.9659    2.2500    0.0000 Si      1  UNL1        0.0000
      7 SI          5.5640   -2.2500    0.0000 Si      1  UNL1        0.0000
      8 SI          3.8320    0.7500    0.0000 Si      1  UNL1        0.0000
      9 SI          4.6980   -0.7500    0.0000 Si      1  UNL1        0.0000
     10 O           6.4300    1.2500    0.0000 O.3     1  UNL1        0.0000
     11 O           7.2960   -0.2500    0.0000 O.3     1  UNL1        0.0000
     12 O           5.5640    2.7500    0.0000 O.3     1  UNL1        0.0000
     13 O           8.1621   -1.7500    0.0000 O.3     1  UNL1        0.0000
     14 O           3.8320    2.7500    0.0000 O.3     1  UNL1        0.0000
     15 O           6.4300   -1.7500    0.0000 O.3     1  UNL1        0.0000
     16 O           2.9659    1.2500    0.0000 O.3     1  UNL1        0.0000
     17 O           4.6980   -1.7500    0.0000 O.3     1  UNL1        0.0000
     18 O           3.8320   -0.2500    0.0000 O.3     1  UNL1        0.0000
     19 C           8.0032    1.4571    0.0000 C.3     1  UNL1        0.0000
     20 C           8.2922    0.6628    0.0000 C.3     1  UNL1        0.0000
     21 C           6.6888    3.2159    0.0000 C.3     1  UNL1        0.0000
     22 C           7.3960    2.5088    0.0000 C.3     1  UNL1        0.0000
     23 C           9.1280   -1.0088    0.0000 C.3     1  UNL1        0.0000
     24 C           8.8692   -0.0429    0.0000 C.3     1  UNL1        0.0000
     25 C           5.4051    1.5429    0.0000 C.3     1  UNL1        0.0000
     26 C           3.7917    1.8273    0.0000 C.3     1  UNL1        0.0000
     27 C           8.0032   -2.9571    0.0000 C.3     1  UNL1        0.0000
     28 C           7.0372   -3.2159    0.0000 C.3     1  UNL1        0.0000
     29 C           2.7071    3.2159    0.0000 C.3     1  UNL1        0.0000
     30 C           2.0000    2.5088    0.0000 C.3     1  UNL1        0.0000
     31 C           4.8570   -2.9572    0.0000 C.3     1  UNL1        0.0000
     32 C           5.8228   -3.2159    0.0000 C.3     1  UNL1        0.0000
     33 C           4.7979    0.4912    0.0000 C.3     1  UNL1        0.0000
     34 C           4.5391    1.4571    0.0000 C.3     1  UNL1        0.0000
     35 C           5.6639   -1.0088    0.0000 C.3     1  UNL1        0.0000
     36 C           5.4051   -0.0429    0.0000 C.3     1  UNL1        0.0000
     37 H           8.4416    1.0187    0.0000 H       1  UNL1        0.0000
     38 H           8.4416    1.8955    0.0000 H       1  UNL1        0.0000
     39 H           7.5648    1.8955    0.0000 H       1  UNL1        0.0000
     40 H           8.2382    0.0452    0.0000 H       1  UNL1        0.0000
     41 H           8.9099    0.6088    0.0000 H       1  UNL1        0.0000
     42 H           8.3463    1.2805    0.0000 H       1  UNL1        0.0000
     43 H           7.2877    3.0555    0.0000 H       1  UNL1        0.0000
     44 H           6.8493    3.8148    0.0000 H       1  UNL1        0.0000
     45 H           6.0900    3.3764    0.0000 H       1  UNL1        0.0000
     46 H           7.5564    1.9100    0.0000 H       1  UNL1        0.0000
     47 H           7.9948    2.6693    0.0000 H       1  UNL1        0.0000
     48 H           7.2355    3.1077    0.0000 H       1  UNL1        0.0000
     49 H           8.9675   -1.6077    0.0000 H       1  UNL1        0.0000
     50 H           9.7269   -1.1693    0.0000 H       1  UNL1        0.0000
     51 H           9.2885   -0.4099    0.0000 H       1  UNL1        0.0000
     52 H           9.3076   -0.4813    0.0000 H       1  UNL1        0.0000
     53 H           9.3076    0.3955    0.0000 H       1  UNL1        0.0000
     54 H           8.4308    0.3955    0.0000 H       1  UNL1        0.0000
     55 H           4.9667    1.1045    0.0000 H       1  UNL1        0.0000
     56 H           5.8435    1.1045    0.0000 H       1  UNL1        0.0000
     57 H           5.8435    1.9813    0.0000 H       1  UNL1        0.0000
     58 H           3.5296    2.3892    0.0000 H       1  UNL1        0.0000
     59 H           3.2298    1.5652    0.0000 H       1  UNL1        0.0000
     60 H           4.0538    1.2654    0.0000 H       1  UNL1        0.0000
     61 H           7.5648   -3.3955    0.0000 H       1  UNL1        0.0000
     62 H           8.4416   -3.3955    0.0000 H       1  UNL1        0.0000
     63 H           8.4416   -2.5187    0.0000 H       1  UNL1        0.0000
     64 H           6.4384   -3.0555    0.0000 H       1  UNL1        0.0000
     65 H           6.8768   -3.8148    0.0000 H       1  UNL1        0.0000
     66 H           7.6361   -3.3764    0.0000 H       1  UNL1        0.0000
     67 H           3.3060    3.3764    0.0000 H       1  UNL1        0.0000
     68 H           2.5466    3.8148    0.0000 H       1  UNL1        0.0000
     69 H           2.1082    3.0555    0.0000 H       1  UNL1        0.0000
     70 H           2.1605    3.1077    0.0000 H       1  UNL1        0.0000
     71 H           1.4011    2.6693    0.0000 H       1  UNL1        0.0000
     72 H           1.8395    1.9100    0.0000 H       1  UNL1        0.0000
     73 H           4.4185   -2.5188    0.0000 H       1  UNL1        0.0000
     74 H           4.4186   -3.3956    0.0000 H       1  UNL1        0.0000
     75 H           5.2954   -3.3955    0.0000 H       1  UNL1        0.0000
     76 H           5.2240   -3.3764    0.0000 H       1  UNL1        0.0000
     77 H           5.9833   -3.8148    0.0000 H       1  UNL1        0.0000
     78 H           6.4217   -3.0555    0.0000 H       1  UNL1        0.0000
     79 H           4.6374   -0.1077    0.0000 H       1  UNL1        0.0000
     80 H           5.3968    0.3307    0.0000 H       1  UNL1        0.0000
     81 H           4.9583    1.0900    0.0000 H       1  UNL1        0.0000
     82 H           4.9775    1.0187    0.0000 H       1  UNL1        0.0000
     83 H           4.9775    1.8955    0.0000 H       1  UNL1        0.0000
     84 H           4.1006    1.8955    0.0000 H       1  UNL1        0.0000
     85 H           5.5034   -1.6077    0.0000 H       1  UNL1        0.0000
     86 H           6.2628   -1.1693    0.0000 H       1  UNL1        0.0000
     87 H           5.8244   -0.4099    0.0000 H       1  UNL1        0.0000
     88 H           5.8435   -0.4813    0.0000 H       1  UNL1        0.0000
     89 H           5.8435    0.3955    0.0000 H       1  UNL1        0.0000
     90 H           4.9667    0.3955    0.0000 H       1  UNL1        0.0000
@<TRIPOS>BOND
     1     1    10    1
     2     1    11    1
     3     1    19    1
     4     1    20    1
     5     2    10    1
     6     2    12    1
     7     2    21    1
     8     2    22    1
     9     3    11    1
    10     3    13    1
    11     3    23    1
    12     3    24    1
    13     4    12    1
    14     4    14    1
    15     4    25    1
    16     4    26    1
    17     5    13    1
    18     5    15    1
    19     5    27    1
    20     5    28    1
    21     6    14    1
    22     6    16    1
    23     6    29    1
    24     6    30    1
    25     7    15    1
    26     7    17    1
    27     7    31    1
    28     7    32    1
    29     8    16    1
    30     8    18    1
    31     8    33    1
    32     8    34    1
    33     9    17    1
    34     9    18    1
    35     9    35    1
    36     9    36    1
    37    19    37    1
    38    19    38    1
    39    19    39    1
    40    20    40    1
    41    20    41    1
    42    20    42    1
    43    21    43    1
    44    21    44    1
    45    21    45    1
    46    22    46    1
    47    22    47    1
    48    22    48    1
    49    23    49    1
    50    23    50    1
    51    23    51    1
    52    24    52    1
    53    24    53    1
    54    24    54    1
    55    25    55    1
    56    25    56    1
    57    25    57    1
    58    26    58    1
    59    26    59    1
    60    26    60    1
    61    27    61    1
    62    27    62    1
    63    27    63    1
    64    28    64    1
    65    28    65    1
    66    28    66    1
    67    29    67    1
    68    29    68    1
    69    29    69    1
    70    30    70    1
    71    30    71    1
    72    30    72    1
    73    31    73    1
    74    31    74    1
    75    31    75    1
    76    32    76    1
    77    32    77    1
    78    32    78    1
    79    33    79    1
    80    33    80    1
    81    33    81    1
    82    34    82    1
    83    34    83    1
    84    34    84    1
    85    35    85    1
    86    35    86    1
    87    35    87    1
    88    36    88    1
    89    36    89    1
    90    36    90    1
