@<TRIPOS>MOLECULE
IMPHY011034
 34 35 0 0 0
SMALL
GASTEIGER

@<TRIPOS>ATOM
      1 O           3.7320    0.5000    0.0000 O.3     1  UNL1       -0.4641
      2 O           4.5981   -1.0000    0.0000 O.2     1  UNL1       -0.2505
      3 C           4.5981    2.0000    0.0000 C.3     1  UNL1        0.0067
      4 C           5.4641    2.5000    0.0000 C.ar    1  UNL1       -0.0442
      5 C           4.5981    1.0000    0.0000 C.3     1  UNL1        0.0964
      6 C           2.8660   -1.0000    0.0000 C.3     1  UNL1        0.0700
      7 C           2.8660   -2.0000    0.0000 C.ar    1  UNL1       -0.0368
      8 C           6.3301    2.0000    0.0000 C.ar    1  UNL1       -0.0585
      9 C           5.4641    3.5000    0.0000 C.ar    1  UNL1       -0.0585
     10 C           3.7320   -0.5000    0.0000 C.2     1  UNL1        0.3115
     11 C           2.0000   -2.5000    0.0000 C.ar    1  UNL1       -0.0581
     12 C           3.7320   -2.5000    0.0000 C.ar    1  UNL1       -0.0581
     13 C           7.1962    2.5000    0.0000 C.ar    1  UNL1       -0.0615
     14 C           6.3301    4.0000    0.0000 C.ar    1  UNL1       -0.0615
     15 C           7.1962    3.5000    0.0000 C.ar    1  UNL1       -0.0617
     16 C           2.0000   -3.5000    0.0000 C.ar    1  UNL1       -0.0615
     17 C           3.7320   -3.5000    0.0000 C.ar    1  UNL1       -0.0615
     18 C           2.8660   -4.0000    0.0000 C.ar    1  UNL1       -0.0617
     19 H           4.3860    2.5826    0.0000 H       1  UNL1        0.0346
     20 H           3.9875    1.8923    0.0000 H       1  UNL1        0.0346
     21 H           4.8101    0.4174    0.0000 H       1  UNL1        0.0701
     22 H           5.2087    1.1077    0.0000 H       1  UNL1        0.0701
     23 H           2.6540   -0.4174    0.0000 H       1  UNL1        0.0426
     24 H           2.2554   -1.1077    0.0000 H       1  UNL1        0.0426
     25 H           6.3301    1.3800    0.0000 H       1  UNL1        0.0620
     26 H           4.9272    3.8100    0.0000 H       1  UNL1        0.0620
     27 H           1.4631   -2.1900    0.0000 H       1  UNL1        0.0620
     28 H           4.2690   -2.1900    0.0000 H       1  UNL1        0.0620
     29 H           7.7331    2.1900    0.0000 H       1  UNL1        0.0618
     30 H           6.3301    4.6200    0.0000 H       1  UNL1        0.0618
     31 H           7.7331    3.8100    0.0000 H       1  UNL1        0.0618
     32 H           1.4631   -3.8100    0.0000 H       1  UNL1        0.0618
     33 H           4.2690   -3.8100    0.0000 H       1  UNL1        0.0618
     34 H           2.8660   -4.6200    0.0000 H       1  UNL1        0.0618
@<TRIPOS>BOND
     1     1     5    1
     2     1    10    1
     3     2    10    2
     4     3     4    1
     5     3     5    1
     6     3    19    1
     7     3    20    1
     8     4     8   ar
     9     4     9   ar
    10     5    21    1
    11     5    22    1
    12     6     7    1
    13     6    10    1
    14     6    23    1
    15     6    24    1
    16     7    11   ar
    17     7    12   ar
    18     8    13   ar
    19     8    25    1
    20     9    14   ar
    21     9    26    1
    22    11    16   ar
    23    11    27    1
    24    12    17   ar
    25    12    28    1
    26    13    15   ar
    27    13    29    1
    28    14    15   ar
    29    14    30    1
    30    15    31    1
    31    16    18   ar
    32    16    32    1
    33    17    18   ar
    34    17    33    1
    35    18    34    1
