@<TRIPOS>MOLECULE
IMPHY006293
 111 119 0 0 0
SMALL
GASTEIGER

@<TRIPOS>ATOM
      1 O           8.0777   -3.1797    0.0000 O.3     1  UNL1       -0.3741
      2 O           6.8102   -5.1344    0.0000 O.3     1  UNL1       -0.3874
      3 O           7.6619   -5.1360    0.0000 O.3     1  UNL1       -0.4658
      4 O           8.8479   -4.3658    0.0000 O.2     1  UNL1       -0.2474
      5 O           9.1105   -1.3699    0.0000 O.2     1  UNL1       -0.2790
      6 O           8.1801    1.3105    0.0000 O.3     1  UNL1       -0.4947
      7 O           6.5287   -0.0024    0.0000 O.3     1  UNL1       -0.4670
      8 O           5.2439    0.0425    0.0000 O.2     1  UNL1       -0.2494
      9 O           9.1930    5.2577    0.0000 O.3     1  UNL1       -0.3873
     10 N           4.3838   -2.9058    0.0000 N.3     1  UNL1       -0.2940
     11 N           7.4632   -1.9052    0.0000 N.am    1  UNL1       -0.2662
     12 N           6.8864    4.5293    0.0000 N.3     1  UNL1       -0.2990
     13 N           4.6681    1.3741    0.0000 N.ar    1  UNL1       -0.3565
     14 C           5.9235   -2.4054    0.0000 C.3     1  UNL1        0.0373
     15 C           5.2980   -3.1001    0.0000 C.3     1  UNL1        0.0338
     16 C           5.5869   -3.9890    0.0000 C.3     1  UNL1        0.0342
     17 C           6.8378   -2.5998    0.0000 C.3     1  UNL1        0.0837
     18 C           7.1266   -3.4888    0.0000 C.3     1  UNL1        0.2088
     19 C           5.5384   -1.3698    0.0000 C.3     1  UNL1       -0.0271
     20 C           6.5012   -4.1834    0.0000 C.3     1  UNL1        0.1066
     21 C           6.2601   -0.8218    0.0000 C.ar    1  UNL1       -0.0158
     22 C           4.0949   -2.0168    0.0000 C.3     1  UNL1        0.0005
     23 C           5.8959   -4.9401    0.0000 C.3     1  UNL1       -0.0428
     24 C           7.1744   -1.0162    0.0000 C.ar    1  UNL1        0.0438
     25 C           4.9614   -4.6837    0.0000 C.2     1  UNL1       -0.0765
     26 C           3.7583   -3.6004    0.0000 C.3     1  UNL1        0.0175
     27 C           4.0472   -4.4893    0.0000 C.2     1  UNL1       -0.0733
     28 C           7.8698   -4.1579    0.0000 C.2     1  UNL1        0.3435
     29 C           5.9713    0.0671    0.0000 C.ar    1  UNL1       -0.0481
     30 C           5.2268   -5.6832    0.0000 C.3     1  UNL1       -0.0644
     31 C           7.7998   -0.3216    0.0000 C.ar    1  UNL1        0.0021
     32 C           8.4414   -2.1131    0.0000 C.2     1  UNL1        0.2071
     33 C           6.5967    0.7617    0.0000 C.ar    1  UNL1        0.0172
     34 C           7.5110    0.5674    0.0000 C.ar    1  UNL1        0.1265
     35 C           6.2877    1.7128    0.0000 C.3     1  UNL1        0.1360
     36 C           7.2388    2.0218    0.0000 C.3     1  UNL1       -0.0234
     37 C           5.3605    2.0874    0.0000 C.ar    1  UNL1        0.0418
     38 C           7.7687    2.8699    0.0000 C.3     1  UNL1       -0.0239
     39 C           5.9131    0.7856    0.0000 C.2     1  UNL1        0.3235
     40 C           8.4050   -5.8052    0.0000 C.3     1  UNL1        0.0818
     41 C           8.6440    3.3911    0.0000 C.3     1  UNL1       -0.0188
     42 C           7.6295    3.8601    0.0000 C.3     1  UNL1        0.0020
     43 C           4.8910    2.9704    0.0000 C.ar    1  UNL1       -0.0165
     44 C           8.6631    4.4097    0.0000 C.3     1  UNL1        0.0788
     45 C           7.8080    4.9634    0.0000 C.3     1  UNL1        0.0278
     46 C           5.0990    3.9485    0.0000 C.3     1  UNL1       -0.0126
     47 C           5.8870    4.5642    0.0000 C.3     1  UNL1        0.0031
     48 C           3.9125    2.7952    0.0000 C.ar    1  UNL1        0.0032
     49 C           9.1583    1.1026    0.0000 C.3     1  UNL1        0.0788
     50 C           3.7750    1.8107    0.0000 C.ar    1  UNL1        0.0470
     51 C           9.6625    4.3748    0.0000 C.3     1  UNL1       -0.0256
     52 C           3.1059    3.4445    0.0000 C.ar    1  UNL1       -0.0523
     53 C           2.8214    1.4072    0.0000 C.ar    1  UNL1       -0.0378
     54 C          10.1319    3.4918    0.0000 C.3     1  UNL1       -0.0626
     55 C           7.6676    0.1577    0.0000 C.3     1  UNL1        0.0817
     56 C           2.1432    3.0632    0.0000 C.ar    1  UNL1       -0.0611
     57 C           2.0000    2.0377    0.0000 C.ar    1  UNL1       -0.0598
     58 H           5.0354   -2.2917    0.0000 H       1  UNL1        0.0481
     59 H           7.6692   -2.7765    0.0000 H       1  UNL1        0.0549
     60 H           6.1147   -1.1411    0.0000 H       1  UNL1        0.0287
     61 H           5.2972   -0.7987    0.0000 H       1  UNL1        0.0287
     62 H           7.1076   -4.3123    0.0000 H       1  UNL1        0.0638
     63 H           3.8617   -1.4423    0.0000 H       1  UNL1        0.0427
     64 H           3.5125   -2.2293    0.0000 H       1  UNL1        0.0427
     65 H           6.2776   -5.4287    0.0000 H       1  UNL1        0.0272
     66 H           6.4433   -4.6490    0.0000 H       1  UNL1        0.0272
     67 H           5.1530   -5.2733    0.0000 H       1  UNL1        0.0576
     68 H           3.3766   -3.1118    0.0000 H       1  UNL1        0.0470
     69 H           3.2109   -3.8914    0.0000 H       1  UNL1        0.0470
     70 H           3.6323   -4.9501    0.0000 H       1  UNL1        0.0582
     71 H           5.3648    0.1960    0.0000 H       1  UNL1        0.0625
     72 H           8.5384   -3.5946    0.0000 H       1  UNL1        0.2110
     73 H           6.3954   -5.5952    0.0000 H       1  UNL1        0.2100
     74 H           4.7660   -5.2684    0.0000 H       1  UNL1        0.0230
     75 H           4.8119   -6.1440    0.0000 H       1  UNL1        0.0230
     76 H           5.6875   -6.0981    0.0000 H       1  UNL1        0.0230
     77 H           8.4063   -0.4505    0.0000 H       1  UNL1        0.0673
     78 H           8.6330   -2.7027    0.0000 H       1  UNL1        0.1257
     79 H           7.2532    1.4020    0.0000 H       1  UNL1        0.0286
     80 H           7.8367    1.8579    0.0000 H       1  UNL1        0.0286
     81 H           8.2024    2.4268    0.0000 H       1  UNL1        0.0314
     82 H           8.8576    2.8091    0.0000 H       1  UNL1        0.0296
     83 H           9.2554    3.4939    0.0000 H       1  UNL1        0.0296
     84 H           7.9902   -6.2659    0.0000 H       1  UNL1        0.0661
     85 H           8.8658   -6.2200    0.0000 H       1  UNL1        0.0661
     86 H           8.8199   -5.3444    0.0000 H       1  UNL1        0.0661
     87 H           8.2424    3.7667    0.0000 H       1  UNL1        0.0429
     88 H           7.8948    4.4205    0.0000 H       1  UNL1        0.0429
     89 H           4.3572    0.8377    0.0000 H       1  UNL1        0.1656
     90 H           8.2351    5.4128    0.0000 H       1  UNL1        0.0455
     91 H           7.4449    5.4660    0.0000 H       1  UNL1        0.0455
     92 H           4.8734    4.5260    0.0000 H       1  UNL1        0.0326
     93 H           4.4810    3.8981    0.0000 H       1  UNL1        0.0326
     94 H           6.0854    5.1516    0.0000 H       1  UNL1        0.0430
     95 H           5.3812    4.9227    0.0000 H       1  UNL1        0.0430
     96 H           9.0294    0.4962    0.0000 H       1  UNL1        0.0660
     97 H           9.7647    0.9737    0.0000 H       1  UNL1        0.0660
     98 H           9.2872    1.7091    0.0000 H       1  UNL1        0.0660
     99 H          10.2521    4.5664    0.0000 H       1  UNL1        0.0291
    100 H           9.5762    4.9887    0.0000 H       1  UNL1        0.0291
    101 H           8.9019    5.8052    0.0000 H       1  UNL1        0.2102
    102 H           3.1988    4.0575    0.0000 H       1  UNL1        0.0624
    103 H           2.7427    0.7922    0.0000 H       1  UNL1        0.0638
    104 H           9.5845    3.2008    0.0000 H       1  UNL1        0.0231
    105 H          10.4230    2.9444    0.0000 H       1  UNL1        0.0231
    106 H          10.6794    3.7829    0.0000 H       1  UNL1        0.0231
    107 H           7.7538   -0.4563    0.0000 H       1  UNL1        0.0661
    108 H           8.2815    0.2439    0.0000 H       1  UNL1        0.0661
    109 H           7.5813    0.7716    0.0000 H       1  UNL1        0.0661
    110 H           1.6558    3.4464    0.0000 H       1  UNL1        0.0618
    111 H           1.4262    1.8027    0.0000 H       1  UNL1        0.0618
@<TRIPOS>BOND
     1    18     1    1
     2     1    72    1
     3    20     2    1
     4     2    73    1
     5     3    28    1
     6     3    40    1
     7     4    28    2
     8     5    32    2
     9     6    34    1
    10     6    49    1
    11     7    39    1
    12     7    55    1
    13     8    39    2
    14    44     9    1
    15     9   101    1
    16    10    15    1
    17    10    22    1
    18    10    26    1
    19    11    17    1
    20    11    24    1
    21    11    32   am
    22    12    42    1
    23    12    45    1
    24    12    47    1
    25    13    37   ar
    26    13    50   ar
    27    13    89    1
    28    14    15    1
    29    14    17    1
    30    14    19    1
    31    14    21    1
    32    15    16    1
    33    15    58    1
    34    16    20    1
    35    16    23    1
    36    16    25    1
    37    17    18    1
    38    17    59    1
    39    18    20    1
    40    18    28    1
    41    19    22    1
    42    19    60    1
    43    19    61    1
    44    20    62    1
    45    21    24   ar
    46    21    29   ar
    47    22    63    1
    48    22    64    1
    49    23    30    1
    50    23    65    1
    51    23    66    1
    52    24    31   ar
    53    25    27    2
    54    25    67    1
    55    26    27    1
    56    26    68    1
    57    26    69    1
    58    27    70    1
    59    29    33   ar
    60    29    71    1
    61    30    74    1
    62    30    75    1
    63    30    76    1
    64    31    34   ar
    65    31    77    1
    66    32    78    1
    67    33    34   ar
    68    33    35    1
    69    35    36    1
    70    35    37    1
    71    35    39    1
    72    36    38    1
    73    36    79    1
    74    36    80    1
    75    37    43   ar
    76    38    41    1
    77    38    42    1
    78    38    81    1
    79    40    84    1
    80    40    85    1
    81    40    86    1
    82    41    44    1
    83    41    82    1
    84    41    83    1
    85    42    87    1
    86    42    88    1
    87    43    46    1
    88    43    48   ar
    89    44    45    1
    90    44    51    1
    91    45    90    1
    92    45    91    1
    93    46    47    1
    94    46    92    1
    95    46    93    1
    96    47    94    1
    97    47    95    1
    98    48    50   ar
    99    48    52   ar
   100    49    96    1
   101    49    97    1
   102    49    98    1
   103    50    53   ar
   104    51    54    1
   105    51    99    1
   106    51   100    1
   107    52    56   ar
   108    52   102    1
   109    53    57   ar
   110    53   103    1
   111    54   104    1
   112    54   105    1
   113    54   106    1
   114    55   107    1
   115    55   108    1
   116    55   109    1
   117    56    57   ar
   118    56   110    1
   119    57   111    1
