@<TRIPOS>MOLECULE
IMPHY015340
 17 16 0 0 0
SMALL
GASTEIGER

@<TRIPOS>ATOM
      1 O           2.5369    0.5000    0.0000 O.3     1  UNL1       -0.3843
      2 O           4.2690    1.5000    0.0000 O.2     1  UNL1       -0.2950
      3 C           3.4030    0.0000    0.0000 C.3     1  UNL1        0.1124
      4 C           3.4030   -1.0000    0.0000 C.3     1  UNL1       -0.0228
      5 C           4.2690    0.5000    0.0000 C.2     1  UNL1        0.1585
      6 C           2.5369   -1.5000    0.0000 C.3     1  UNL1       -0.0625
      7 C           5.1350    0.0000    0.0000 C.3     1  UNL1       -0.0035
      8 H           3.4030    0.6200    0.0000 H       1  UNL1        0.0672
      9 H           3.6150   -1.5826    0.0000 H       1  UNL1        0.0292
     10 H           4.0135   -0.8923    0.0000 H       1  UNL1        0.0292
     11 H           2.2269   -0.9631    0.0000 H       1  UNL1        0.0231
     12 H           2.0000   -1.8100    0.0000 H       1  UNL1        0.0231
     13 H           2.8469   -2.0369    0.0000 H       1  UNL1        0.0231
     14 H           4.8250   -0.5369    0.0000 H       1  UNL1        0.0307
     15 H           5.6720   -0.3100    0.0000 H       1  UNL1        0.0307
     16 H           5.4450    0.5369    0.0000 H       1  UNL1        0.0307
     17 H           2.0000    0.1900    0.0000 H       1  UNL1        0.2104
@<TRIPOS>BOND
     1     1     3    1
     2     1    17    1
     3     2     5    2
     4     3     4    1
     5     3     5    1
     6     3     8    1
     7     4     6    1
     8     4     9    1
     9     4    10    1
    10     5     7    1
    11     6    11    1
    12     6    12    1
    13     6    13    1
    14     7    14    1
    15     7    15    1
    16     7    16    1
