@<TRIPOS>MOLECULE
IMPHY015503
 19 19 0 0 0
SMALL
GASTEIGER

@<TRIPOS>ATOM
      1 O           3.7320    1.2500    0.0000 O.3     1  UNL1       -0.3784
      2 C           2.8660   -0.2500    0.0000 C.ar    1  UNL1       -0.0219
      3 C           2.8660    0.7500    0.0000 C.3     1  UNL1        0.0723
      4 C           2.0000   -0.7500    0.0000 C.ar    1  UNL1       -0.0564
      5 C           3.7320   -0.7500    0.0000 C.ar    1  UNL1       -0.0564
      6 C           2.0000   -1.7500    0.0000 C.ar    1  UNL1       -0.0614
      7 C           3.7320   -1.7500    0.0000 C.ar    1  UNL1       -0.0614
      8 C           2.8660   -2.2500    0.0000 C.ar    1  UNL1       -0.0617
      9 C           3.7320    2.2500    0.0000 C.3     1  UNL1        0.0369
     10 H           2.6540    1.3326    0.0000 H       1  UNL1        0.0610
     11 H           2.2554    0.6423    0.0000 H       1  UNL1        0.0610
     12 H           1.4631   -0.4400    0.0000 H       1  UNL1        0.0621
     13 H           4.2690   -0.4400    0.0000 H       1  UNL1        0.0621
     14 H           1.4631   -2.0600    0.0000 H       1  UNL1        0.0618
     15 H           4.2690   -2.0600    0.0000 H       1  UNL1        0.0618
     16 H           2.8660   -2.8700    0.0000 H       1  UNL1        0.0618
     17 H           4.3520    2.2500    0.0000 H       1  UNL1        0.0524
     18 H           3.7320    2.8700    0.0000 H       1  UNL1        0.0524
     19 H           3.1120    2.2500    0.0000 H       1  UNL1        0.0524
@<TRIPOS>BOND
     1     1     3    1
     2     1     9    1
     3     2     3    1
     4     2     4   ar
     5     2     5   ar
     6     3    10    1
     7     3    11    1
     8     4     6   ar
     9     4    12    1
    10     5     7   ar
    11     5    13    1
    12     6     8   ar
    13     6    14    1
    14     7     8   ar
    15     7    15    1
    16     8    16    1
    17     9    17    1
    18     9    18    1
    19     9    19    1
