@<TRIPOS>MOLECULE
IMPHY005303
 45 47 0 0 0
SMALL
GASTEIGER

@<TRIPOS>ATOM
      1 O           2.0000   -2.4172    0.0000 O.2     1  UNL1       -0.2968
      2 O           7.2622   -2.3931    0.0000 O.2     1  UNL1       -0.2920
      3 O           7.2723    2.6795    0.0000 O.3     1  UNL1       -0.4771
      4 O           5.5403    2.6728    0.0000 O.2     1  UNL1       -0.2451
      5 C           4.6641   -0.8931    0.0000 C.3     1  UNL1       -0.0019
      6 C           4.6641   -1.8931    0.0000 C.3     1  UNL1       -0.0128
      7 C           3.7702   -2.4278    0.0000 C.3     1  UNL1        0.0274
      8 C           3.7702   -0.3584    0.0000 C.3     1  UNL1       -0.0366
      9 C           5.5301   -2.3931    0.0000 C.3     1  UNL1        0.0150
     10 C           5.5301   -0.3931    0.0000 C.ar    1  UNL1       -0.0299
     11 C           2.8641   -0.8723    0.0000 C.3     1  UNL1        0.0072
     12 C           2.8641   -1.9139    0.0000 C.2     1  UNL1        0.1393
     13 C           4.6641    0.1069    0.0000 C.3     1  UNL1       -0.0552
     14 C           3.2802   -3.2995    0.0000 C.3     1  UNL1       -0.0528
     15 C           4.2801   -3.2879    0.0000 C.3     1  UNL1       -0.0528
     16 C           6.3961   -0.8931    0.0000 C.ar    1  UNL1        0.0214
     17 C           6.3961   -1.8931    0.0000 C.2     1  UNL1        0.1638
     18 C           5.5141    0.6484    0.0000 C.ar    1  UNL1       -0.0431
     19 C           7.3062   -0.3862    0.0000 C.ar    1  UNL1       -0.0473
     20 C           6.4121    1.1762    0.0000 C.ar    1  UNL1        0.0620
     21 C           7.3142    0.6554    0.0000 C.ar    1  UNL1       -0.0358
     22 C           8.1821    1.1520    0.0000 C.3     1  UNL1       -0.0389
     23 C           6.4082    2.1762    0.0000 C.2     1  UNL1        0.3371
     24 H           4.6706   -2.7431    0.0000 H       1  UNL1        0.0323
     25 H           4.1748    0.1114    0.0000 H       1  UNL1        0.0278
     26 H           3.3765    0.1206    0.0000 H       1  UNL1        0.0278
     27 H           5.1316   -2.8680    0.0000 H       1  UNL1        0.0348
     28 H           5.9286   -2.8680    0.0000 H       1  UNL1        0.0348
     29 H           2.6550   -0.2886    0.0000 H       1  UNL1        0.0342
     30 H           2.2532   -0.9784    0.0000 H       1  UNL1        0.0342
     31 H           5.2841    0.1069    0.0000 H       1  UNL1        0.0238
     32 H           4.6641    0.7269    0.0000 H       1  UNL1        0.0238
     33 H           4.0441    0.1069    0.0000 H       1  UNL1        0.0238
     34 H           2.7397   -2.9957    0.0000 H       1  UNL1        0.0239
     35 H           2.9764   -3.8400    0.0000 H       1  UNL1        0.0239
     36 H           3.8207   -3.6033    0.0000 H       1  UNL1        0.0239
     37 H           3.7468   -3.6041    0.0000 H       1  UNL1        0.0239
     38 H           4.5963   -3.8212    0.0000 H       1  UNL1        0.0239
     39 H           4.8134   -2.9718    0.0000 H       1  UNL1        0.0239
     40 H           4.9736    0.9522    0.0000 H       1  UNL1        0.0629
     41 H           7.8395   -0.7024    0.0000 H       1  UNL1        0.0627
     42 H           8.4901    0.6139    0.0000 H       1  UNL1        0.0278
     43 H           8.7203    1.4600    0.0000 H       1  UNL1        0.0278
     44 H           7.8742    1.6901    0.0000 H       1  UNL1        0.0278
     45 H           7.2700    3.2995    0.0000 H       1  UNL1        0.2954
@<TRIPOS>BOND
     1     1    12    2
     2     2    17    2
     3     3    23    1
     4     3    45    1
     5     4    23    2
     6     5     6    1
     7     5     8    1
     8     5    10    1
     9     5    13    1
    10     6     7    1
    11     6     9    1
    12     6    24    1
    13     7    12    1
    14     7    14    1
    15     7    15    1
    16     8    11    1
    17     8    25    1
    18     8    26    1
    19     9    17    1
    20     9    27    1
    21     9    28    1
    22    10    16   ar
    23    10    18   ar
    24    11    12    1
    25    11    29    1
    26    11    30    1
    27    13    31    1
    28    13    32    1
    29    13    33    1
    30    14    34    1
    31    14    35    1
    32    14    36    1
    33    15    37    1
    34    15    38    1
    35    15    39    1
    36    16    17    1
    37    16    19   ar
    38    18    20   ar
    39    18    40    1
    40    19    21   ar
    41    19    41    1
    42    20    21   ar
    43    20    23    1
    44    21    22    1
    45    22    42    1
    46    22    43    1
    47    22    44    1
