@<TRIPOS>MOLECULE
IMPHY001340
 153 162 0 0 0
SMALL
GASTEIGER

@<TRIPOS>ATOM
      1 O          14.3523    5.8824    0.0000 O.3     1  UNL1       -0.3448
      2 O          12.5799    6.7772    0.0000 O.3     1  UNL1       -0.3480
      3 O          12.9292   -2.3617    0.0000 O.3     1  UNL1       -0.3426
      4 O          11.1219   -1.3089    0.0000 O.3     1  UNL1       -0.3892
      5 O          11.1972   -2.3617    0.0000 O.3     1  UNL1       -0.3405
      6 O          12.9292   -4.3617    0.0000 O.3     1  UNL1       -0.3841
      7 O          11.1972   -5.3617    0.0000 O.3     1  UNL1       -0.3864
      8 O           9.4651   -4.3617    0.0000 O.3     1  UNL1       -0.3401
      9 O           9.4651   -1.3617    0.0000 O.3     1  UNL1       -0.3924
     10 O           8.5991   -2.8617    0.0000 O.3     1  UNL1       -0.3405
     11 O           7.7331   -5.3617    0.0000 O.3     1  UNL1       -0.3377
     12 O           6.0010   -4.3617    0.0000 O.3     1  UNL1       -0.3401
     13 O           6.0010   -2.3617    0.0000 O.3     1  UNL1       -0.3865
     14 O           6.4062   -6.4750    0.0000 O.3     1  UNL1       -0.3405
     15 O           6.8671   -0.8617    0.0000 O.3     1  UNL1       -0.3924
     16 O           5.1350   -2.8617    0.0000 O.3     1  UNL1       -0.3461
     17 O           9.0187   -6.8937    0.0000 O.3     1  UNL1       -0.3841
     18 O           8.3347   -8.7732    0.0000 O.3     1  UNL1       -0.3864
     19 O           4.2690   -5.3617    0.0000 O.3     1  UNL1       -0.3841
     20 O           6.3650   -9.1205    0.0000 O.3     1  UNL1       -0.3865
     21 O           2.5369   -4.3617    0.0000 O.3     1  UNL1       -0.3864
     22 O           2.5369   -2.3617    0.0000 O.3     1  UNL1       -0.3869
     23 O           4.7374   -8.5280    0.0000 O.3     1  UNL1       -0.3924
     24 C          12.9585    3.8352    0.0000 C.3     1  UNL1       -0.0233
     25 C          13.8264    3.3385    0.0000 C.3     1  UNL1       -0.0295
     26 C          13.1640    4.8078    0.0000 C.3     1  UNL1       -0.0015
     27 C          13.8303    2.3385    0.0000 C.3     1  UNL1       -0.0306
     28 C          14.1523    4.9146    0.0000 C.3     1  UNL1        0.0660
     29 C          12.9662    1.8352    0.0000 C.3     1  UNL1       -0.0285
     30 C          14.5609    4.0084    0.0000 C.3     1  UNL1       -0.0226
     31 C          12.0944    3.3318    0.0000 C.3     1  UNL1       -0.0467
     32 C          12.7617    5.7104    0.0000 C.3     1  UNL1        0.0160
     33 C          12.0983    2.3318    0.0000 C.3     1  UNL1       -0.0486
     34 C          12.9542    0.7936    0.0000 C.3     1  UNL1       -0.0055
     35 C          13.4946    6.3732    0.0000 C.3     1  UNL1        0.1732
     36 C          12.0906    4.3318    0.0000 C.3     1  UNL1       -0.0590
     37 C          14.7422    1.8352    0.0000 C.3     1  UNL1       -0.0311
     38 C          13.8542    0.2693    0.0000 C.2     1  UNL1       -0.0647
     39 C          12.0043    0.2693    0.0000 C.3     1  UNL1       -0.0150
     40 C          11.7833    5.9171    0.0000 C.3     1  UNL1       -0.0572
     41 C          14.3019    6.9634    0.0000 C.3     1  UNL1        0.0020
     42 C          14.7543    0.7936    0.0000 C.2     1  UNL1       -0.0839
     43 C          12.0901    1.2970    0.0000 C.3     1  UNL1       -0.0555
     44 C          13.8668   -0.8156    0.0000 C.3     1  UNL1       -0.0023
     45 C          11.9917   -0.8156    0.0000 C.3     1  UNL1        0.0825
     46 C          12.9292   -1.3617    0.0000 C.3     1  UNL1        0.0913
     47 C          14.1944    7.9576    0.0000 C.3     1  UNL1       -0.0435
     48 C          13.2796    8.3616    0.0000 C.3     1  UNL1       -0.0201
     49 C          12.4724    7.7714    0.0000 C.3     1  UNL1        0.0535
     50 C          13.1721    9.3558    0.0000 C.3     1  UNL1       -0.0603
     51 C          12.0632   -2.8617    0.0000 C.3     1  UNL1        0.1883
     52 C          12.0632   -3.8617    0.0000 C.3     1  UNL1        0.1341
     53 C          11.1972   -4.3617    0.0000 C.3     1  UNL1        0.1144
     54 C          10.3312   -2.8617    0.0000 C.3     1  UNL1        0.1134
     55 C          10.3312   -3.8617    0.0000 C.3     1  UNL1        0.1184
     56 C           9.4651   -2.3617    0.0000 C.3     1  UNL1        0.0730
     57 C           8.5991   -3.8617    0.0000 C.3     1  UNL1        0.1888
     58 C           7.7331   -4.3617    0.0000 C.3     1  UNL1        0.1410
     59 C           6.8671   -3.8617    0.0000 C.3     1  UNL1        0.1209
     60 C           7.7331   -2.3617    0.0000 C.3     1  UNL1        0.1130
     61 C           6.8671   -2.8617    0.0000 C.3     1  UNL1        0.1123
     62 C           7.7331   -1.3617    0.0000 C.3     1  UNL1        0.0730
     63 C           7.3910   -6.3014    0.0000 C.3     1  UNL1        0.1885
     64 C           5.1350   -3.8617    0.0000 C.3     1  UNL1        0.1880
     65 C           8.0339   -7.0674    0.0000 C.3     1  UNL1        0.1341
     66 C           7.6918   -8.0071    0.0000 C.3     1  UNL1        0.1141
     67 C           4.2690   -4.3617    0.0000 C.3     1  UNL1        0.1341
     68 C           6.0642   -7.4147    0.0000 C.3     1  UNL1        0.1130
     69 C           6.7070   -8.1808    0.0000 C.3     1  UNL1        0.1119
     70 C           3.4030   -3.8617    0.0000 C.3     1  UNL1        0.1137
     71 C           3.4030   -2.8617    0.0000 C.3     1  UNL1        0.1069
     72 C           4.2690   -2.3617    0.0000 C.3     1  UNL1        0.0792
     73 C           5.0794   -7.5883    0.0000 C.3     1  UNL1        0.0730
     74 H          14.6047    2.9968    0.0000 H       1  UNL1        0.0310
     75 H          12.3187    4.7182    0.0000 H       1  UNL1        0.0335
     76 H          14.5615    2.7720    0.0000 H       1  UNL1        0.0310
     77 H          14.9972    5.0078    0.0000 H       1  UNL1        0.0600
     78 H          13.7007    1.4074    0.0000 H       1  UNL1        0.0312
     79 H          14.9283    3.5090    0.0000 H       1  UNL1        0.0293
     80 H          15.0962    4.3213    0.0000 H       1  UNL1        0.0293
     81 H          11.8801    3.9136    0.0000 H       1  UNL1        0.0271
     82 H          11.4842    3.2218    0.0000 H       1  UNL1        0.0271
     83 H          12.3719    5.2282    0.0000 H       1  UNL1        0.0354
     84 H          11.4873    2.4372    0.0000 H       1  UNL1        0.0268
     85 H          11.8885    1.7484    0.0000 H       1  UNL1        0.0268
     86 H          12.3985    4.8700    0.0000 H       1  UNL1        0.0235
     87 H          11.5524    4.6398    0.0000 H       1  UNL1        0.0235
     88 H          11.7826    3.7937    0.0000 H       1  UNL1        0.0235
     89 H          15.3543    1.7362    0.0000 H       1  UNL1        0.0310
     90 H          14.9445    2.4212    0.0000 H       1  UNL1        0.0310
     91 H          11.8020    0.8554    0.0000 H       1  UNL1        0.0299
     92 H          11.3922    0.1703    0.0000 H       1  UNL1        0.0299
     93 H          11.9114    6.5237    0.0000 H       1  UNL1        0.0234
     94 H          11.1766    6.0452    0.0000 H       1  UNL1        0.0234
     95 H          11.6551    5.3104    0.0000 H       1  UNL1        0.0234
     96 H          14.5753    6.4069    0.0000 H       1  UNL1        0.0317
     97 H          14.8974    7.1360    0.0000 H       1  UNL1        0.0317
     98 H          15.2936    0.4878    0.0000 H       1  UNL1        0.0572
     99 H          12.4021    1.8327    0.0000 H       1  UNL1        0.0238
    100 H          11.5543    1.6090    0.0000 H       1  UNL1        0.0238
    101 H          11.7780    0.7612    0.0000 H       1  UNL1        0.0238
    102 H          14.0826   -1.3968    0.0000 H       1  UNL1        0.0336
    103 H          14.4764   -0.7024    0.0000 H       1  UNL1        0.0336
    104 H          11.4578   -0.5004    0.0000 H       1  UNL1        0.0619
    105 H          12.3917   -1.6707    0.0000 H       1  UNL1        0.0626
    106 H          14.8130    7.9162    0.0000 H       1  UNL1        0.0270
    107 H          14.3426    8.5596    0.0000 H       1  UNL1        0.0270
    108 H          13.7801    8.7275    0.0000 H       1  UNL1        0.0320
    109 H          12.1989    8.3278    0.0000 H       1  UNL1        0.0563
    110 H          11.8769    7.5987    0.0000 H       1  UNL1        0.0563
    111 H          10.5873   -0.9948    0.0000 H       1  UNL1        0.2099
    112 H          13.7885    9.4224    0.0000 H       1  UNL1        0.0233
    113 H          13.1055    9.9722    0.0000 H       1  UNL1        0.0233
    114 H          12.5557    9.2891    0.0000 H       1  UNL1        0.0233
    115 H          12.6002   -3.1717    0.0000 H       1  UNL1        0.0938
    116 H          12.0632   -4.4817    0.0000 H       1  UNL1        0.0671
    117 H          10.6603   -4.6717    0.0000 H       1  UNL1        0.0648
    118 H          10.3312   -2.2417    0.0000 H       1  UNL1        0.0647
    119 H           9.7942   -3.5517    0.0000 H       1  UNL1        0.0651
    120 H          13.4662   -4.0517    0.0000 H       1  UNL1        0.2101
    121 H           8.8546   -2.2540    0.0000 H       1  UNL1        0.0584
    122 H           9.2531   -2.9443    0.0000 H       1  UNL1        0.0584
    123 H          11.7341   -5.6717    0.0000 H       1  UNL1        0.2100
    124 H           8.5991   -4.4817    0.0000 H       1  UNL1        0.0938
    125 H           8.9282   -1.0517    0.0000 H       1  UNL1        0.2095
    126 H           7.1962   -4.6717    0.0000 H       1  UNL1        0.0675
    127 H           6.3301   -3.5517    0.0000 H       1  UNL1        0.0651
    128 H           8.2700   -2.0517    0.0000 H       1  UNL1        0.0647
    129 H           6.8671   -2.2417    0.0000 H       1  UNL1        0.0647
    130 H           8.3437   -1.4694    0.0000 H       1  UNL1        0.0584
    131 H           7.9451   -0.7791    0.0000 H       1  UNL1        0.0584
    132 H           6.9925   -5.8264    0.0000 H       1  UNL1        0.0938
    133 H           6.0010   -1.7417    0.0000 H       1  UNL1        0.2100
    134 H           5.1350   -4.4817    0.0000 H       1  UNL1        0.0937
    135 H           8.4324   -7.5424    0.0000 H       1  UNL1        0.0671
    136 H           7.4798   -8.5898    0.0000 H       1  UNL1        0.0648
    137 H           3.7320   -4.6717    0.0000 H       1  UNL1        0.0671
    138 H           5.6656   -6.9397    0.0000 H       1  UNL1        0.0647
    139 H           6.0964   -8.2884    0.0000 H       1  UNL1        0.0647
    140 H           6.8671   -0.2417    0.0000 H       1  UNL1        0.2095
    141 H           2.8660   -3.5517    0.0000 H       1  UNL1        0.0647
    142 H           3.4030   -2.2417    0.0000 H       1  UNL1        0.0643
    143 H           4.6675   -1.8868    0.0000 H       1  UNL1        0.0587
    144 H           3.8705   -1.8868    0.0000 H       1  UNL1        0.0587
    145 H           9.2307   -6.3112    0.0000 H       1  UNL1        0.2101
    146 H           5.0794   -6.9683    0.0000 H       1  UNL1        0.0584
    147 H           4.4688   -7.4806    0.0000 H       1  UNL1        0.0584
    148 H           8.1226   -9.3558    0.0000 H       1  UNL1        0.2100
    149 H           3.7320   -5.6717    0.0000 H       1  UNL1        0.2101
    150 H           5.7544   -9.2281    0.0000 H       1  UNL1        0.2100
    151 H           2.0000   -4.0517    0.0000 H       1  UNL1        0.2100
    152 H           2.5369   -1.7417    0.0000 H       1  UNL1        0.2100
    153 H           4.1268   -8.6357    0.0000 H       1  UNL1        0.2095
@<TRIPOS>BOND
     1     1    28    1
     2    35     1    1
     3     2    35    1
     4     2    49    1
     5    46     3    1
     6    51     3    1
     7    45     4    1
     8     4   111    1
     9     5    51    1
    10     5    54    1
    11    52     6    1
    12     6   120    1
    13    53     7    1
    14     7   123    1
    15    55     8    1
    16    57     8    1
    17     9    56    1
    18     9   125    1
    19    10    57    1
    20    10    60    1
    21    58    11    1
    22    63    11    1
    23    59    12    1
    24    64    12    1
    25    61    13    1
    26    13   133    1
    27    14    63    1
    28    14    68    1
    29    15    62    1
    30    15   140    1
    31    16    64    1
    32    16    72    1
    33    65    17    1
    34    17   145    1
    35    66    18    1
    36    18   148    1
    37    67    19    1
    38    19   149    1
    39    69    20    1
    40    20   150    1
    41    70    21    1
    42    21   151    1
    43    71    22    1
    44    22   152    1
    45    23    73    1
    46    23   153    1
    47    24    25    1
    48    24    26    1
    49    24    31    1
    50    24    36    1
    51    25    27    1
    52    25    30    1
    53    25    74    1
    54    26    28    1
    55    26    32    1
    56    26    75    1
    57    27    29    1
    58    27    37    1
    59    27    76    1
    60    28    30    1
    61    28    77    1
    62    29    33    1
    63    29    34    1
    64    29    78    1
    65    30    79    1
    66    30    80    1
    67    31    33    1
    68    31    81    1
    69    31    82    1
    70    32    35    1
    71    32    40    1
    72    32    83    1
    73    33    84    1
    74    33    85    1
    75    34    38    1
    76    34    39    1
    77    34    43    1
    78    35    41    1
    79    36    86    1
    80    36    87    1
    81    36    88    1
    82    37    42    1
    83    37    89    1
    84    37    90    1
    85    38    42    2
    86    38    44    1
    87    39    45    1
    88    39    91    1
    89    39    92    1
    90    40    93    1
    91    40    94    1
    92    40    95    1
    93    41    47    1
    94    41    96    1
    95    41    97    1
    96    42    98    1
    97    43    99    1
    98    43   100    1
    99    43   101    1
   100    44    46    1
   101    44   102    1
   102    44   103    1
   103    45    46    1
   104    45   104    1
   105    46   105    1
   106    47    48    1
   107    47   106    1
   108    47   107    1
   109    48    49    1
   110    48    50    1
   111    48   108    1
   112    49   109    1
   113    49   110    1
   114    50   112    1
   115    50   113    1
   116    50   114    1
   117    51    52    1
   118    51   115    1
   119    52    53    1
   120    52   116    1
   121    53    55    1
   122    53   117    1
   123    54    55    1
   124    54    56    1
   125    54   118    1
   126    55   119    1
   127    56   121    1
   128    56   122    1
   129    57    58    1
   130    57   124    1
   131    58    59    1
   132    58   126    1
   133    59    61    1
   134    59   127    1
   135    60    61    1
   136    60    62    1
   137    60   128    1
   138    61   129    1
   139    62   130    1
   140    62   131    1
   141    63    65    1
   142    63   132    1
   143    64    67    1
   144    64   134    1
   145    65    66    1
   146    65   135    1
   147    66    69    1
   148    66   136    1
   149    67    70    1
   150    67   137    1
   151    68    69    1
   152    68    73    1
   153    68   138    1
   154    69   139    1
   155    70    71    1
   156    70   141    1
   157    71    72    1
   158    71   142    1
   159    72   143    1
   160    72   144    1
   161    73   146    1
   162    73   147    1
