@<TRIPOS>MOLECULE
IMPHY015237
 65 64 0 0 0
SMALL
GASTEIGER

@<TRIPOS>ATOM
      1 C           9.7942   -0.2500    0.0000 C.3     1  UNL1       -0.0439
      2 C           6.3301   -0.2500    0.0000 C.3     1  UNL1       -0.0439
      3 C           8.9282    0.2500    0.0000 C.3     1  UNL1       -0.0505
      4 C           7.1962    0.2500    0.0000 C.3     1  UNL1       -0.0505
      5 C           8.0622   -0.2500    0.0000 C.3     1  UNL1       -0.0526
      6 C          10.6603    0.2500    0.0000 C.3     1  UNL1       -0.0505
      7 C           5.4641    0.2500    0.0000 C.3     1  UNL1       -0.0505
      8 C          11.5263   -0.2500    0.0000 C.3     1  UNL1       -0.0528
      9 C          12.3923    0.2500    0.0000 C.3     1  UNL1       -0.0528
     10 C           4.5981   -0.2500    0.0000 C.3     1  UNL1       -0.0526
     11 C          13.2583   -0.2500    0.0000 C.3     1  UNL1       -0.0505
     12 C           9.7942   -1.2500    0.0000 C.3     1  UNL1       -0.0624
     13 C          14.1244    0.2500    0.0000 C.3     1  UNL1       -0.0441
     14 C           6.3301   -1.2500    0.0000 C.3     1  UNL1       -0.0624
     15 C           3.7320    0.2500    0.0000 C.3     1  UNL1       -0.0507
     16 C           2.8660   -0.2500    0.0000 C.3     1  UNL1       -0.0467
     17 C          14.9904   -0.2500    0.0000 C.3     1  UNL1       -0.0533
     18 C          14.1244    1.2500    0.0000 C.3     1  UNL1       -0.0624
     19 C           2.0000    0.2500    0.0000 C.3     1  UNL1       -0.0627
     20 C           2.8660   -1.2500    0.0000 C.3     1  UNL1       -0.0627
     21 C          15.8564    0.2500    0.0000 C.3     1  UNL1       -0.0650
     22 H           9.2573   -0.5600    0.0000 H       1  UNL1        0.0298
     23 H           6.8671   -0.5600    0.0000 H       1  UNL1        0.0298
     24 H           9.3267    0.7249    0.0000 H       1  UNL1        0.0268
     25 H           8.5297    0.7249    0.0000 H       1  UNL1        0.0268
     26 H           7.5947    0.7249    0.0000 H       1  UNL1        0.0268
     27 H           6.7976    0.7249    0.0000 H       1  UNL1        0.0268
     28 H           7.6636   -0.7249    0.0000 H       1  UNL1        0.0265
     29 H           8.4607   -0.7249    0.0000 H       1  UNL1        0.0265
     30 H          11.0588    0.7249    0.0000 H       1  UNL1        0.0268
     31 H          10.2617    0.7249    0.0000 H       1  UNL1        0.0268
     32 H           5.8626    0.7249    0.0000 H       1  UNL1        0.0268
     33 H           5.0656    0.7249    0.0000 H       1  UNL1        0.0268
     34 H          11.1278   -0.7249    0.0000 H       1  UNL1        0.0265
     35 H          11.9248   -0.7249    0.0000 H       1  UNL1        0.0265
     36 H          12.7908    0.7249    0.0000 H       1  UNL1        0.0265
     37 H          11.9938    0.7249    0.0000 H       1  UNL1        0.0265
     38 H           4.1996   -0.7249    0.0000 H       1  UNL1        0.0265
     39 H           4.9966   -0.7249    0.0000 H       1  UNL1        0.0265
     40 H          12.8598   -0.7249    0.0000 H       1  UNL1        0.0268
     41 H          13.6569   -0.7249    0.0000 H       1  UNL1        0.0268
     42 H           9.1742   -1.2500    0.0000 H       1  UNL1        0.0232
     43 H           9.7942   -1.8700    0.0000 H       1  UNL1        0.0232
     44 H          10.4142   -1.2500    0.0000 H       1  UNL1        0.0232
     45 H          13.5874    0.5600    0.0000 H       1  UNL1        0.0298
     46 H           5.7101   -1.2500    0.0000 H       1  UNL1        0.0232
     47 H           6.3301   -1.8700    0.0000 H       1  UNL1        0.0232
     48 H           6.9501   -1.2500    0.0000 H       1  UNL1        0.0232
     49 H           4.1306    0.7249    0.0000 H       1  UNL1        0.0268
     50 H           3.3335    0.7249    0.0000 H       1  UNL1        0.0268
     51 H           2.8660    0.3700    0.0000 H       1  UNL1        0.0295
     52 H          14.5919   -0.7249    0.0000 H       1  UNL1        0.0265
     53 H          15.3889   -0.7249    0.0000 H       1  UNL1        0.0265
     54 H          14.7444    1.2500    0.0000 H       1  UNL1        0.0232
     55 H          14.1244    1.8700    0.0000 H       1  UNL1        0.0232
     56 H          13.5044    1.2500    0.0000 H       1  UNL1        0.0232
     57 H           2.3100    0.7869    0.0000 H       1  UNL1        0.0232
     58 H           1.4631    0.5600    0.0000 H       1  UNL1        0.0232
     59 H           1.6900   -0.2869    0.0000 H       1  UNL1        0.0232
     60 H           2.2460   -1.2500    0.0000 H       1  UNL1        0.0232
     61 H           2.8660   -1.8700    0.0000 H       1  UNL1        0.0232
     62 H           3.4860   -1.2500    0.0000 H       1  UNL1        0.0232
     63 H          16.1664   -0.2869    0.0000 H       1  UNL1        0.0230
     64 H          16.3933    0.5600    0.0000 H       1  UNL1        0.0230
     65 H          15.5464    0.7869    0.0000 H       1  UNL1        0.0230
@<TRIPOS>BOND
     1     1     3    1
     2     1     6    1
     3     1    12    1
     4     1    22    1
     5     2     4    1
     6     2     7    1
     7     2    14    1
     8     2    23    1
     9     3     5    1
    10     3    24    1
    11     3    25    1
    12     4     5    1
    13     4    26    1
    14     4    27    1
    15     5    28    1
    16     5    29    1
    17     6     8    1
    18     6    30    1
    19     6    31    1
    20     7    10    1
    21     7    32    1
    22     7    33    1
    23     8     9    1
    24     8    34    1
    25     8    35    1
    26     9    11    1
    27     9    36    1
    28     9    37    1
    29    10    15    1
    30    10    38    1
    31    10    39    1
    32    11    13    1
    33    11    40    1
    34    11    41    1
    35    12    42    1
    36    12    43    1
    37    12    44    1
    38    13    17    1
    39    13    18    1
    40    13    45    1
    41    14    46    1
    42    14    47    1
    43    14    48    1
    44    15    16    1
    45    15    49    1
    46    15    50    1
    47    16    19    1
    48    16    20    1
    49    16    51    1
    50    17    21    1
    51    17    52    1
    52    17    53    1
    53    18    54    1
    54    18    55    1
    55    18    56    1
    56    19    57    1
    57    19    58    1
    58    19    59    1
    59    20    60    1
    60    20    61    1
    61    20    62    1
    62    21    63    1
    63    21    64    1
    64    21    65    1
