@<TRIPOS>MOLECULE
IMPHY009421
 38 40 0 0 0
SMALL
GASTEIGER

@<TRIPOS>ATOM
      1 O           3.8000    1.2327    0.0000 O.3     1  UNL1       -0.3837
      2 O           6.4783   -1.0720    0.0000 O.3     1  UNL1       -0.4575
      3 O           8.0619   -0.2673    0.0000 O.2     1  UNL1       -0.2453
      4 C           3.8000   -0.7673    0.0000 C.3     1  UNL1        0.0040
      5 C           3.8000    0.2327    0.0000 C.3     1  UNL1        0.0929
      6 C           4.6660   -1.2673    0.0000 C.3     1  UNL1       -0.0067
      7 C           4.6660    0.7327    0.0000 C.3     1  UNL1       -0.0092
      8 C           5.5321    0.2327    0.0000 C.3     1  UNL1        0.0304
      9 C           5.5321   -0.7673    0.0000 C.3     1  UNL1        0.1110
     10 C           2.9061   -1.3020    0.0000 C.3     1  UNL1       -0.0443
     11 C           2.9061    0.7674    0.0000 C.2     1  UNL1       -0.0450
     12 C           2.0000   -0.7881    0.0000 C.3     1  UNL1       -0.0487
     13 C           3.8000   -1.7673    0.0000 C.3     1  UNL1       -0.0565
     14 C           2.0000    0.2535    0.0000 C.3     1  UNL1       -0.0293
     15 C           6.4783    0.5374    0.0000 C.2     1  UNL1        0.0362
     16 C           7.0619   -0.2673    0.0000 C.2     1  UNL1        0.3353
     17 C           2.9176    1.7673    0.0000 C.2     1  UNL1       -0.0967
     18 C           6.7889    1.4880    0.0000 C.2     1  UNL1       -0.0883
     19 H           4.2675   -1.7422    0.0000 H       1  UNL1        0.0307
     20 H           5.0646   -1.7422    0.0000 H       1  UNL1        0.0307
     21 H           5.0646    1.2076    0.0000 H       1  UNL1        0.0303
     22 H           4.2675    1.2076    0.0000 H       1  UNL1        0.0303
     23 H           5.6220    1.0779    0.0000 H       1  UNL1        0.0388
     24 H           5.6220   -1.6125    0.0000 H       1  UNL1        0.0740
     25 H           2.5124   -1.7810    0.0000 H       1  UNL1        0.0272
     26 H           3.3107   -1.7718    0.0000 H       1  UNL1        0.0272
     27 H           1.3891   -0.6820    0.0000 H       1  UNL1        0.0268
     28 H           1.7909   -1.3718    0.0000 H       1  UNL1        0.0268
     29 H           3.1800   -1.7673    0.0000 H       1  UNL1        0.0236
     30 H           3.8000   -2.3873    0.0000 H       1  UNL1        0.0236
     31 H           4.4200   -1.7673    0.0000 H       1  UNL1        0.0236
     32 H           1.7909    0.8372    0.0000 H       1  UNL1        0.0311
     33 H           1.3891    0.1474    0.0000 H       1  UNL1        0.0311
     34 H           4.3369    1.5427    0.0000 H       1  UNL1        0.2106
     35 H           3.4581    2.0711    0.0000 H       1  UNL1        0.0535
     36 H           2.3843    2.0835    0.0000 H       1  UNL1        0.0535
     37 H           7.3956    1.6158    0.0000 H       1  UNL1        0.0540
     38 H           6.3749    1.9494    0.0000 H       1  UNL1        0.0540
@<TRIPOS>BOND
     1     5     1    1
     2     1    34    1
     3     2     9    1
     4     2    16    1
     5     3    16    2
     6     4     5    1
     7     4     6    1
     8     4    10    1
     9     4    13    1
    10     5     7    1
    11     5    11    1
    12     6     9    1
    13     6    19    1
    14     6    20    1
    15     7     8    1
    16     7    21    1
    17     7    22    1
    18     8     9    1
    19     8    15    1
    20     8    23    1
    21     9    24    1
    22    10    12    1
    23    10    25    1
    24    10    26    1
    25    11    14    1
    26    11    17    2
    27    12    14    1
    28    12    27    1
    29    12    28    1
    30    13    29    1
    31    13    30    1
    32    13    31    1
    33    14    32    1
    34    14    33    1
    35    15    16    1
    36    15    18    2
    37    17    35    1
    38    17    36    1
    39    18    37    1
    40    18    38    1
