@<TRIPOS>MOLECULE
IMPHY003133
 24 24 0 0 0
SMALL
GASTEIGER

@<TRIPOS>ATOM
      1 O           6.0010    1.0000    0.0000 O.3     1  UNL1       -0.3875
      2 O           4.2690    2.0000    0.0000 O.3     1  UNL1       -0.3866
      3 O           2.5369    1.0000    0.0000 O.3     1  UNL1       -0.3879
      4 O           6.0010   -2.0000    0.0000 O.3     1  UNL1       -0.3934
      5 N           4.2690   -1.0000    0.0000 N.3     1  UNL1       -0.3064
      6 C           5.1350    0.5000    0.0000 C.3     1  UNL1        0.1009
      7 CA          5.1350   -0.5000    0.0000 C.3     1  UNL1        0.0596
      8 C           4.2690    1.0000    0.0000 C.3     1  UNL1        0.1095
      9 C           3.4030    0.5000    0.0000 C.3     1  UNL1        0.0959
     10 C           3.4030   -0.5000    0.0000 C.3     1  UNL1        0.0249
     11 C           6.0010   -1.0000    0.0000 C.3     1  UNL1        0.0620
     12 H           5.1350    1.1200    0.0000 H       1  UNL1        0.0636
     13 HA          5.1350   -1.1200    0.0000 H       1  UNL1        0.0509
     14 H           3.7320    1.3100    0.0000 H       1  UNL1        0.0646
     15 H           3.9650    1.1200    0.0000 H       1  UNL1        0.0633
     16 H           2.7924   -0.3923    0.0000 H       1  UNL1        0.0450
     17 H           3.1909   -1.0826    0.0000 H       1  UNL1        0.0450
     18 H           4.2690   -1.6200    0.0000 H       1  UNL1        0.1224
     19 H1          6.6116   -1.1077    0.0000 H       1  UNL1        0.0573
     20 H2          6.2131   -0.4174    0.0000 H       1  UNL1        0.0573
     21 H           6.0010    1.6200    0.0000 H       1  UNL1        0.2100
     22 H           3.7320    2.3100    0.0000 H       1  UNL1        0.2100
     23 H           2.0000    0.6900    0.0000 H       1  UNL1        0.2099
     24 H           6.5380   -2.3100    0.0000 H       1  UNL1        0.2095
@<TRIPOS>BOND
     1     6     1    1
     2     1    21    1
     3     8     2    1
     4     2    22    1
     5     9     3    1
     6     3    23    1
     7     4    11    1
     8     4    24    1
     9     5     7    1
    10     5    10    1
    11     5    18    1
    12     6     7    1
    13     6     8    1
    14     6    12    1
    15     7    11    1
    16     7    13    1
    17     8     9    1
    18     8    14    1
    19     9    10    1
    20     9    15    1
    21    10    16    1
    22    10    17    1
    23    11    19    1
    24    11    20    1
