@<TRIPOS>MOLECULE
IMPHY009986
 40 41 0 0 0
SMALL
GASTEIGER

@<TRIPOS>ATOM
      1 O           3.7320    1.3776    0.0000 O.2     1  UNL1       -0.2962
      2 C           4.5981   -0.1224    0.0000 C.3     1  UNL1        0.0505
      3 C           4.5981   -1.1224    0.0000 C.3     1  UNL1       -0.0223
      4 C           5.5443   -1.4271    0.0000 C.3     1  UNL1       -0.0398
      5 C           5.5443    0.1824    0.0000 C.3     1  UNL1       -0.0366
      6 C           6.1279   -0.6224    0.0000 C.3     1  UNL1       -0.0490
      7 C           3.7320   -1.6224    0.0000 C.3     1  UNL1       -0.0451
      8 C           3.7320    0.3776    0.0000 C.2     1  UNL1       -0.0716
      9 C           4.5981    0.8776    0.0000 C.2     1  UNL1        0.1460
     10 C           2.8660   -1.1224    0.0000 C.3     1  UNL1       -0.0317
     11 C           5.8550   -2.3776    0.0000 C.3     1  UNL1       -0.0621
     12 C           2.8660   -0.1224    0.0000 C.2     1  UNL1       -0.0756
     13 C           5.4641    1.3776    0.0000 C.3     1  UNL1        0.0127
     14 C           2.0000    0.3776    0.0000 C.3     1  UNL1       -0.0438
     15 C           5.4641    2.3776    0.0000 C.3     1  UNL1       -0.0559
     16 C           6.3301    0.8776    0.0000 C.3     1  UNL1       -0.0559
     17 H           4.6880   -1.9676    0.0000 H       1  UNL1        0.0316
     18 H           5.1068   -1.8665    0.0000 H       1  UNL1        0.0301
     19 H           6.0817    0.4916    0.0000 H       1  UNL1        0.0278
     20 H           5.2933    0.7493    0.0000 H       1  UNL1        0.0278
     21 H           6.5888   -1.0371    0.0000 H       1  UNL1        0.0268
     22 H           6.5888   -0.2076    0.0000 H       1  UNL1        0.0268
     23 H           3.3335   -2.0973    0.0000 H       1  UNL1        0.0271
     24 H           4.1306   -2.0973    0.0000 H       1  UNL1        0.0271
     25 H           3.7320    0.9976    0.0000 H       1  UNL1        0.0581
     26 H           2.2554   -1.0147    0.0000 H       1  UNL1        0.0310
     27 H           2.6540   -1.7050    0.0000 H       1  UNL1        0.0310
     28 H           5.2656   -2.5702    0.0000 H       1  UNL1        0.0233
     29 H           6.0476   -2.9670    0.0000 H       1  UNL1        0.0233
     30 H           6.4443   -2.1850    0.0000 H       1  UNL1        0.0233
     31 H           5.4641    0.7576    0.0000 H       1  UNL1        0.0372
     32 H           2.3100    0.9146    0.0000 H       1  UNL1        0.0274
     33 H           1.4631    0.6876    0.0000 H       1  UNL1        0.0274
     34 H           1.6900   -0.1593    0.0000 H       1  UNL1        0.0274
     35 H           6.0841    2.3776    0.0000 H       1  UNL1        0.0236
     36 H           5.4641    2.9976    0.0000 H       1  UNL1        0.0236
     37 H           4.8441    2.3776    0.0000 H       1  UNL1        0.0236
     38 H           6.0201    0.3407    0.0000 H       1  UNL1        0.0236
     39 H           6.8671    0.5676    0.0000 H       1  UNL1        0.0236
     40 H           6.6401    1.4146    0.0000 H       1  UNL1        0.0236
@<TRIPOS>BOND
     1     1     9    2
     2     2     3    1
     3     2     5    1
     4     2     8    1
     5     2     9    1
     6     3     4    1
     7     3     7    1
     8     3    17    1
     9     4     6    1
    10     4    11    1
    11     4    18    1
    12     5     6    1
    13     5    19    1
    14     5    20    1
    15     6    21    1
    16     6    22    1
    17     7    10    1
    18     7    23    1
    19     7    24    1
    20     8    12    2
    21     8    25    1
    22     9    13    1
    23    10    12    1
    24    10    26    1
    25    10    27    1
    26    11    28    1
    27    11    29    1
    28    11    30    1
    29    12    14    1
    30    13    15    1
    31    13    16    1
    32    13    31    1
    33    14    32    1
    34    14    33    1
    35    14    34    1
    36    15    35    1
    37    15    36    1
    38    15    37    1
    39    16    38    1
    40    16    39    1
    41    16    40    1
