@<TRIPOS>MOLECULE
IMPHY003365
 30 31 0 0 0
SMALL
GASTEIGER

@<TRIPOS>ATOM
      1 O           2.0000   -3.5950    0.0000 O.3     1  UNL1       -0.5068
      2 O           4.5981    3.9050    0.0000 O.3     1  UNL1       -0.5068
      3 C           3.7320   -0.5950    0.0000 C.3     1  UNL1       -0.0236
      4 C           4.5981   -0.0950    0.0000 C.3     1  UNL1       -0.0237
      5 C           3.7320   -1.5950    0.0000 C.ar    1  UNL1       -0.0436
      6 C           4.5981    0.9050    0.0000 C.ar    1  UNL1       -0.0468
      7 C           2.8660   -2.0950    0.0000 C.ar    1  UNL1       -0.0170
      8 C           5.4641    1.4050    0.0000 C.ar    1  UNL1       -0.0551
      9 C           3.7320    1.4050    0.0000 C.ar    1  UNL1       -0.0551
     10 C           4.5981   -2.0950    0.0000 C.ar    1  UNL1       -0.0583
     11 C           2.8660   -3.0950    0.0000 C.ar    1  UNL1        0.1171
     12 C           5.4641    2.4050    0.0000 C.ar    1  UNL1       -0.0199
     13 C           3.7320    2.4050    0.0000 C.ar    1  UNL1       -0.0199
     14 C           4.5981   -3.0950    0.0000 C.ar    1  UNL1       -0.0581
     15 C           4.5981    2.9050    0.0000 C.ar    1  UNL1        0.1169
     16 C           3.7320   -3.5950    0.0000 C.ar    1  UNL1       -0.0202
     17 H           3.5200   -0.0124    0.0000 H       1  UNL1        0.0316
     18 H           3.1215   -0.7027    0.0000 H       1  UNL1        0.0316
     19 H           4.8101   -0.6776    0.0000 H       1  UNL1        0.0316
     20 H           5.2087    0.0127    0.0000 H       1  UNL1        0.0316
     21 H           2.3291   -1.7850    0.0000 H       1  UNL1        0.0657
     22 H           6.0010    1.0950    0.0000 H       1  UNL1        0.0621
     23 H           3.1951    1.0950    0.0000 H       1  UNL1        0.0621
     24 H           5.1350   -1.7850    0.0000 H       1  UNL1        0.0620
     25 H           6.0010    2.7150    0.0000 H       1  UNL1        0.0654
     26 H           3.1951    2.7150    0.0000 H       1  UNL1        0.0654
     27 H           5.1350   -3.4050    0.0000 H       1  UNL1        0.0619
     28 H           3.7320   -4.2150    0.0000 H       1  UNL1        0.0654
     29 H           2.0000   -4.2150    0.0000 H       1  UNL1        0.2921
     30 H           5.1350    4.2150    0.0000 H       1  UNL1        0.2921
@<TRIPOS>BOND
     1     1    11    1
     2     1    29    1
     3     2    15    1
     4     2    30    1
     5     3     4    1
     6     3     5    1
     7     3    17    1
     8     3    18    1
     9     4     6    1
    10     4    19    1
    11     4    20    1
    12     5     7   ar
    13     5    10   ar
    14     6     8   ar
    15     6     9   ar
    16     7    11   ar
    17     7    21    1
    18     8    12   ar
    19     8    22    1
    20     9    13   ar
    21     9    23    1
    22    10    14   ar
    23    10    24    1
    24    11    16   ar
    25    12    15   ar
    26    12    25    1
    27    13    15   ar
    28    13    26    1
    29    14    16   ar
    30    14    27    1
    31    16    28    1
