@<TRIPOS>MOLECULE
IMPHY004349
 50 51 0 0 0
SMALL
GASTEIGER

@<TRIPOS>ATOM
      1 O           6.8671   -0.9050    0.0000 O.3     1  UNL1       -0.3451
      2 O           5.1350   -0.9050    0.0000 O.3     1  UNL1       -0.3405
      3 O           6.8671   -2.9050    0.0000 O.3     1  UNL1       -0.3841
      4 O           5.1350   -3.9050    0.0000 O.3     1  UNL1       -0.3864
      5 O           3.4030   -2.9050    0.0000 O.3     1  UNL1       -0.3865
      6 O           2.5369   -1.4050    0.0000 O.3     1  UNL1       -0.3924
      7 O           6.0010    3.5950    0.0000 O.3     1  UNL1       -0.4773
      8 O           7.7331    3.5950    0.0000 O.2     1  UNL1       -0.2455
      9 C           7.7331    1.5950    0.0000 C.3     1  UNL1       -0.0008
     10 C           6.8671    0.0950    0.0000 C.3     1  UNL1        0.0662
     11 C           7.7331    0.5950    0.0000 C.3     1  UNL1       -0.0168
     12 C           6.0010    0.5950    0.0000 C.3     1  UNL1       -0.0047
     13 C           6.0010   -1.4050    0.0000 C.3     1  UNL1        0.1882
     14 C           6.8671    2.0950    0.0000 C.2     1  UNL1        0.0412
     15 C           6.0010   -2.4050    0.0000 C.3     1  UNL1        0.1341
     16 C           5.1350   -2.9050    0.0000 C.3     1  UNL1        0.1141
     17 C           6.0010    1.5950    0.0000 C.2     1  UNL1       -0.0597
     18 C           4.2690   -2.4050    0.0000 C.3     1  UNL1        0.1119
     19 C           4.2690   -1.4050    0.0000 C.3     1  UNL1        0.1130
     20 C           8.2331    2.4610    0.0000 C.3     1  UNL1       -0.0555
     21 C           8.7331    1.5950    0.0000 C.3     1  UNL1       -0.0555
     22 C           5.1350    2.0950    0.0000 C.3     1  UNL1       -0.0429
     23 C           3.4030   -0.9050    0.0000 C.3     1  UNL1        0.0730
     24 C           6.8671    3.0950    0.0000 C.2     1  UNL1        0.3332
     25 H           7.4040   -0.2150    0.0000 H       1  UNL1        0.0600
     26 H           7.9451    0.0124    0.0000 H       1  UNL1        0.0299
     27 H           8.3437    0.7027    0.0000 H       1  UNL1        0.0299
     28 H           5.3905    0.7027    0.0000 H       1  UNL1        0.0335
     29 H           5.7890    0.0124    0.0000 H       1  UNL1        0.0335
     30 H           6.0010   -0.7850    0.0000 H       1  UNL1        0.0937
     31 H           6.0010   -3.0250    0.0000 H       1  UNL1        0.0671
     32 H           4.5981   -3.2150    0.0000 H       1  UNL1        0.0648
     33 H           3.7320   -2.0950    0.0000 H       1  UNL1        0.0647
     34 H           4.2690   -0.7850    0.0000 H       1  UNL1        0.0647
     35 H           8.7700    2.1510    0.0000 H       1  UNL1        0.0238
     36 H           8.5431    2.9980    0.0000 H       1  UNL1        0.0238
     37 H           7.6962    2.7710    0.0000 H       1  UNL1        0.0238
     38 H           8.7331    0.9750    0.0000 H       1  UNL1        0.0238
     39 H           9.3531    1.5950    0.0000 H       1  UNL1        0.0238
     40 H           8.7331    2.2150    0.0000 H       1  UNL1        0.0238
     41 H           3.8015   -0.4301    0.0000 H       1  UNL1        0.0584
     42 H           3.0044   -0.4301    0.0000 H       1  UNL1        0.0584
     43 H           5.4450    2.6319    0.0000 H       1  UNL1        0.0275
     44 H           4.5981    2.4050    0.0000 H       1  UNL1        0.0275
     45 H           4.8250    1.5581    0.0000 H       1  UNL1        0.0275
     46 H           6.8671   -3.5250    0.0000 H       1  UNL1        0.2101
     47 H           4.5981   -4.2150    0.0000 H       1  UNL1        0.2100
     48 H           3.4030   -3.5250    0.0000 H       1  UNL1        0.2100
     49 H           2.0000   -1.0950    0.0000 H       1  UNL1        0.2095
     50 H           6.0010    4.2150    0.0000 H       1  UNL1        0.2954
@<TRIPOS>BOND
     1    10     1    1
     2    13     1    1
     3     2    13    1
     4     2    19    1
     5    15     3    1
     6     3    46    1
     7    16     4    1
     8     4    47    1
     9    18     5    1
    10     5    48    1
    11     6    23    1
    12     6    49    1
    13     7    24    1
    14     7    50    1
    15     8    24    2
    16     9    11    1
    17     9    14    1
    18     9    20    1
    19     9    21    1
    20    10    11    1
    21    10    12    1
    22    10    25    1
    23    11    26    1
    24    11    27    1
    25    12    17    1
    26    12    28    1
    27    12    29    1
    28    13    15    1
    29    13    30    1
    30    14    17    2
    31    14    24    1
    32    15    16    1
    33    15    31    1
    34    16    18    1
    35    16    32    1
    36    17    22    1
    37    18    19    1
    38    18    33    1
    39    19    23    1
    40    19    34    1
    41    20    35    1
    42    20    36    1
    43    20    37    1
    44    21    38    1
    45    21    39    1
    46    21    40    1
    47    22    43    1
    48    22    44    1
    49    22    45    1
    50    23    41    1
    51    23    42    1
