@<TRIPOS>MOLECULE
IMPHY006868
 38 40 0 0 0
SMALL
GASTEIGER

@<TRIPOS>ATOM
      1 O           4.2053    1.0931    0.0000 O.3     1  UNL1       -0.3570
      2 C           4.0984   -0.0837    0.0000 C.3     1  UNL1        0.1150
      3 C           4.9994    0.3502    0.0000 C.3     1  UNL1        0.0018
      4 C           3.5984    2.1069    0.0000 C.3     1  UNL1        0.0814
      5 C           3.1974    0.3502    0.0000 C.2     1  UNL1       -0.0321
      6 C           5.2219    1.3251    0.0000 C.3     1  UNL1       -0.0420
      7 C           4.5984    2.1069    0.0000 C.3     1  UNL1       -0.0221
      8 C           2.9749    1.3251    0.0000 C.2     1  UNL1       -0.0420
      9 C           4.1923   -1.1211    0.0000 C.2     1  UNL1       -0.0490
     10 C           2.3279   -0.2233    0.0000 C.3     1  UNL1       -0.0247
     11 C           5.9882    0.2011    0.0000 C.3     1  UNL1       -0.0566
     12 C           5.3647   -0.5807    0.0000 C.3     1  UNL1       -0.0566
     13 C           2.3977   -1.2625    0.0000 C.3     1  UNL1       -0.0281
     14 C           3.3362   -1.7145    0.0000 C.2     1  UNL1       -0.0732
     15 C           2.0000    1.5476    0.0000 C.3     1  UNL1       -0.0410
     16 C           3.4148   -2.7114    0.0000 C.3     1  UNL1       -0.0437
     17 H           3.4093    2.9356    0.0000 H       1  UNL1        0.0643
     18 H           5.7805    1.0561    0.0000 H       1  UNL1        0.0272
     19 H           5.6085    1.8098    0.0000 H       1  UNL1        0.0272
     20 H           5.1570    2.3760    0.0000 H       1  UNL1        0.0294
     21 H           4.4604    2.7114    0.0000 H       1  UNL1        0.0294
     22 H           4.7539   -1.3836    0.0000 H       1  UNL1        0.0603
     23 H           2.0802    0.3451    0.0000 H       1  UNL1        0.0314
     24 H           1.7255   -0.3701    0.0000 H       1  UNL1        0.0314
     25 H           4.7876   -0.8072    0.0000 H       1  UNL1        0.0236
     26 H           5.5912   -1.1578    0.0000 H       1  UNL1        0.0236
     27 H           5.9419   -0.3542    0.0000 H       1  UNL1        0.0236
     28 H           5.8958   -0.4119    0.0000 H       1  UNL1        0.0236
     29 H           6.6013    0.1087    0.0000 H       1  UNL1        0.0236
     30 H           6.0806    0.8142    0.0000 H       1  UNL1        0.0236
     31 H           1.7811   -1.1976    0.0000 H       1  UNL1        0.0313
     32 H           2.2282   -1.8589    0.0000 H       1  UNL1        0.0313
     33 H           2.1380    2.1521    0.0000 H       1  UNL1        0.0275
     34 H           1.3955    1.6856    0.0000 H       1  UNL1        0.0275
     35 H           1.8620    0.9432    0.0000 H       1  UNL1        0.0275
     36 H           2.7967   -2.7601    0.0000 H       1  UNL1        0.0274
     37 H           3.4635   -3.3295    0.0000 H       1  UNL1        0.0274
     38 H           4.0328   -2.6627    0.0000 H       1  UNL1        0.0274
@<TRIPOS>BOND
     1     1     2    1
     2     1     4    1
     3     2     3    1
     4     2     5    1
     5     2     9    1
     6     3     6    1
     7     3    11    1
     8     3    12    1
     9     4     7    1
    10     4     8    1
    11     4    17    1
    12     5     8    2
    13     5    10    1
    14     6     7    1
    15     6    18    1
    16     6    19    1
    17     7    20    1
    18     7    21    1
    19     8    15    1
    20     9    14    2
    21     9    22    1
    22    10    13    1
    23    10    23    1
    24    10    24    1
    25    11    28    1
    26    11    29    1
    27    11    30    1
    28    12    25    1
    29    12    26    1
    30    12    27    1
    31    13    14    1
    32    13    31    1
    33    13    32    1
    34    14    16    1
    35    15    33    1
    36    15    34    1
    37    15    35    1
    38    16    36    1
    39    16    37    1
    40    16    38    1
