@<TRIPOS>MOLECULE
IMPHY001363
 94 98 0 0 0
SMALL
GASTEIGER

@<TRIPOS>ATOM
      1 O           6.4435    0.4776    0.0000 O.3     1  UNL1       -0.4864
      2 O           9.0576   -0.6091    0.0000 O.2     1  UNL1       -0.2734
      3 O          10.1340   -0.4028    0.0000 O.2     1  UNL1       -0.2735
      4 O           6.3638   -3.8699    0.0000 O.2     1  UNL1       -0.2734
      5 O          12.1556    2.5827    0.0000 O.2     1  UNL1       -0.2741
      6 O           2.7028    0.1960    0.0000 O.3     1  UNL1       -0.4945
      7 N           8.9751    0.8843    0.0000 N.am    1  UNL1       -0.2849
      8 N           7.4864   -1.4741    0.0000 N.am    1  UNL1       -0.2883
      9 N          11.6203    0.9354    0.0000 N.am    1  UNL1       -0.3024
     10 N           5.6593   -2.2876    0.0000 N.am    1  UNL1       -0.2904
     11 N          13.5224    0.3174    0.0000 N.3     1  UNL1       -0.2974
     12 C           8.1661    0.2965    0.0000 C.3     1  UNL1        0.1392
     13 C           7.3570    0.8843    0.0000 C.3     1  UNL1        0.1285
     14 C           7.6661    1.8354    0.0000 C.3     1  UNL1        0.0024
     15 C           8.6661    1.8354    0.0000 C.3     1  UNL1        0.0191
     16 C           8.0615   -0.6980    0.0000 C.2     1  UNL1        0.2404
     17 C           7.3819   -2.4686    0.0000 C.3     1  UNL1        0.1026
     18 C           8.4593   -1.2699    0.0000 C.3     1  UNL1        0.0156
     19 C           8.2910   -2.8706    0.0000 C.3     1  UNL1       -0.0243
     20 C           8.9556   -2.1312    0.0000 C.3     1  UNL1       -0.0350
     21 C           9.9261    0.5753    0.0000 C.2     1  UNL1        0.2369
     22 C          10.6693    1.2444    0.0000 C.3     1  UNL1        0.1022
     23 C          10.4614    2.2226    0.0000 C.3     1  UNL1       -0.0171
     24 C           6.4683   -2.8753    0.0000 C.2     1  UNL1        0.2373
     25 C          11.2045    2.8917    0.0000 C.3     1  UNL1       -0.0512
     26 C           9.5103    2.5316    0.0000 C.3     1  UNL1       -0.0603
     27 C           5.6345    1.0654    0.0000 C.ar    1  UNL1        0.1218
     28 C          12.3635    1.6045    0.0000 C.2     1  UNL1        0.2312
     29 C          10.9966    3.8699    0.0000 C.3     1  UNL1       -0.0650
     30 C          13.3145    1.2955    0.0000 C.3     1  UNL1        0.0908
     31 C           4.7209    0.6586    0.0000 C.ar    1  UNL1       -0.0092
     32 C           4.8754    1.7188    0.0000 C.ar    1  UNL1       -0.0164
     33 C           4.3626   -0.2750    0.0000 C.ar    1  UNL1        0.0213
     34 C           5.7638   -1.2930    0.0000 C.2     1  UNL1       -0.0030
     35 C          14.0577    1.9647    0.0000 C.3     1  UNL1       -0.0035
     36 C           4.7693   -1.1885    0.0000 C.2     1  UNL1       -0.0371
     37 C           3.9198    1.4189    0.0000 C.ar    1  UNL1       -0.0159
     38 C           3.6703    0.4489    0.0000 C.ar    1  UNL1        0.1275
     39 C          15.0087    1.6556    0.0000 C.ar    1  UNL1       -0.0454
     40 C          12.7793   -0.3518    0.0000 C.3     1  UNL1       -0.0123
     41 C          14.4735    0.0084    0.0000 C.3     1  UNL1       -0.0123
     42 C          15.2166    0.6775    0.0000 C.ar    1  UNL1       -0.0585
     43 C          15.7519    2.3248    0.0000 C.ar    1  UNL1       -0.0585
     44 C          16.1677    0.3685    0.0000 C.ar    1  UNL1       -0.0615
     45 C          16.7029    2.0158    0.0000 C.ar    1  UNL1       -0.0615
     46 C           2.0000    0.9074    0.0000 C.3     1  UNL1        0.0788
     47 C          16.9108    1.0376    0.0000 C.ar    1  UNL1       -0.0617
     48 H           8.7030   -0.0135    0.0000 H       1  UNL1        0.0634
     49 H           6.8963    1.2992    0.0000 H       1  UNL1        0.0757
     50 H           7.7309    2.4520    0.0000 H       1  UNL1        0.0317
     51 H           7.0596    1.9643    0.0000 H       1  UNL1        0.0317
     52 H           9.2725    1.9643    0.0000 H       1  UNL1        0.0466
     53 H           8.6012    2.4520    0.0000 H       1  UNL1        0.0466
     54 H           7.2930   -3.3139    0.0000 H       1  UNL1        0.0597
     55 H           9.0260   -1.0186    0.0000 H       1  UNL1        0.0465
     56 H           8.2689   -0.6799    0.0000 H       1  UNL1        0.0465
     57 H           7.9821   -3.4081    0.0000 H       1  UNL1        0.0288
     58 H           8.7932   -3.2343    0.0000 H       1  UNL1        0.0288
     59 H           9.3706   -2.5919    0.0000 H       1  UNL1        0.0281
     60 H           9.4573   -1.7670    0.0000 H       1  UNL1        0.0281
     61 H          10.7982    0.6380    0.0000 H       1  UNL1        0.0597
     62 H          10.0006    1.8077    0.0000 H       1  UNL1        0.0321
     63 H          11.7492    0.3290    0.0000 H       1  UNL1        0.1495
     64 H          11.5331    2.3659    0.0000 H       1  UNL1        0.0266
     65 H          11.7794    3.1240    0.0000 H       1  UNL1        0.0266
     66 H           9.7019    3.1212    0.0000 H       1  UNL1        0.0233
     67 H           8.9206    2.7232    0.0000 H       1  UNL1        0.0233
     68 H           9.3187    1.9419    0.0000 H       1  UNL1        0.0233
     69 H           5.0929   -2.5397    0.0000 H       1  UNL1        0.1543
     70 H          11.6030    3.9988    0.0000 H       1  UNL1        0.0230
     71 H          10.8677    4.4763    0.0000 H       1  UNL1        0.0230
     72 H          10.3901    3.7410    0.0000 H       1  UNL1        0.0230
     73 H          13.9042    1.1039    0.0000 H       1  UNL1        0.0562
     74 H           4.2712    1.0854    0.0000 H       1  UNL1        0.0661
     75 H           5.0006    2.3261    0.0000 H       1  UNL1        0.0655
     76 H           6.2457   -0.9028    0.0000 H       1  UNL1        0.0782
     77 H          14.3488    2.5121    0.0000 H       1  UNL1        0.0333
     78 H          13.5691    2.3464    0.0000 H       1  UNL1        0.0333
     79 H           4.4049   -1.6901    0.0000 H       1  UNL1        0.0637
     80 H           3.4700    1.8457    0.0000 H       1  UNL1        0.0655
     81 H          12.3644    0.1090    0.0000 H       1  UNL1        0.0391
     82 H          12.3186   -0.7666    0.0000 H       1  UNL1        0.0391
     83 H          13.1942   -0.8125    0.0000 H       1  UNL1        0.0391
     84 H          14.2819   -0.5813    0.0000 H       1  UNL1        0.0391
     85 H          15.0632   -0.1832    0.0000 H       1  UNL1        0.0391
     86 H          14.6651    0.5980    0.0000 H       1  UNL1        0.0391
     87 H          14.7559    0.2626    0.0000 H       1  UNL1        0.0620
     88 H          15.6230    2.9312    0.0000 H       1  UNL1        0.0620
     89 H          16.2966   -0.2380    0.0000 H       1  UNL1        0.0618
     90 H          17.1637    2.4306    0.0000 H       1  UNL1        0.0618
     91 H           2.4411    1.3431    0.0000 H       1  UNL1        0.0660
     92 H           1.5643    1.3484    0.0000 H       1  UNL1        0.0660
     93 H           1.5589    0.4717    0.0000 H       1  UNL1        0.0660
     94 H          17.5005    0.8460    0.0000 H       1  UNL1        0.0618
@<TRIPOS>BOND
     1     1    13    1
     2     1    27    1
     3     2    16    2
     4     3    21    2
     5     4    24    2
     6     5    28    2
     7     6    38    1
     8     6    46    1
     9     7    12    1
    10     7    15    1
    11     7    21   am
    12     8    16   am
    13     8    17    1
    14     8    18    1
    15    22     9    1
    16     9    28   am
    17     9    63    1
    18    10    24   am
    19    10    34    1
    20    10    69    1
    21    30    11    1
    22    11    40    1
    23    11    41    1
    24    12    13    1
    25    12    16    1
    26    12    48    1
    27    13    14    1
    28    13    49    1
    29    14    15    1
    30    14    50    1
    31    14    51    1
    32    15    52    1
    33    15    53    1
    34    17    19    1
    35    17    24    1
    36    17    54    1
    37    18    20    1
    38    18    55    1
    39    18    56    1
    40    19    20    1
    41    19    57    1
    42    19    58    1
    43    20    59    1
    44    20    60    1
    45    21    22    1
    46    22    23    1
    47    22    61    1
    48    23    25    1
    49    23    26    1
    50    23    62    1
    51    25    29    1
    52    25    64    1
    53    25    65    1
    54    26    66    1
    55    26    67    1
    56    26    68    1
    57    27    31   ar
    58    27    32   ar
    59    28    30    1
    60    29    70    1
    61    29    71    1
    62    29    72    1
    63    30    35    1
    64    30    73    1
    65    31    33   ar
    66    31    74    1
    67    32    37   ar
    68    32    75    1
    69    33    36    1
    70    33    38   ar
    71    34    36    2
    72    34    76    1
    73    35    39    1
    74    35    77    1
    75    35    78    1
    76    36    79    1
    77    37    38   ar
    78    37    80    1
    79    39    42   ar
    80    39    43   ar
    81    40    81    1
    82    40    82    1
    83    40    83    1
    84    41    84    1
    85    41    85    1
    86    41    86    1
    87    42    44   ar
    88    42    87    1
    89    43    45   ar
    90    43    88    1
    91    44    47   ar
    92    44    89    1
    93    45    47   ar
    94    45    90    1
    95    46    91    1
    96    46    92    1
    97    46    93    1
    98    47    94    1
