@<TRIPOS>MOLECULE
IMPHY009935
 42 44 0 0 0
SMALL
GASTEIGER

@<TRIPOS>ATOM
      1 O           6.0682   -1.1633    0.0000 O.2     1  UNL1       -0.4543
      2 O           9.5984   -1.1875    0.0000 O.3     1  UNL1       -0.4946
      3 O           7.8167    1.8713    0.0000 O.3     1  UNL1       -0.5055
      4 O           6.0682    1.8367    0.0000 O.2     1  UNL1       -0.2863
      5 O           2.5381    0.8608    0.0000 O.3     1  UNL1       -0.5067
      6 C           6.9343    0.3367    0.0000 C.ar    1  UNL1        0.1063
      7 C           8.7343    0.3575    0.0000 C.ar    1  UNL1        0.0402
      8 C           6.9343   -0.6633    0.0000 C.ar    1  UNL1        0.1463
      9 C           7.8282    0.8713    0.0000 C.ar    1  UNL1        0.1381
     10 C           9.5984    0.8608    0.0000 C.3     1  UNL1       -0.0023
     11 C           8.7343   -0.6841    0.0000 C.ar    1  UNL1        0.1305
     12 C           6.0682    0.8367    0.0000 C.ar    1  UNL1        0.2038
     13 C           5.2022    0.3367    0.0000 C.ar    1  UNL1        0.0681
     14 C           7.8282   -1.1980    0.0000 C.ar    1  UNL1        0.0236
     15 C           5.2022   -0.6633    0.0000 C.ar    1  UNL1        0.1395
     16 C          10.4663    0.3642    0.0000 C.2     1  UNL1       -0.0807
     17 C           4.3083    0.8713    0.0000 C.ar    1  UNL1       -0.0058
     18 C           4.3083   -1.1980    0.0000 C.ar    1  UNL1       -0.0152
     19 C          11.3304    0.8675    0.0000 C.2     1  UNL1       -0.0793
     20 C           3.4022    0.3575    0.0000 C.ar    1  UNL1        0.1178
     21 C           3.4022   -0.6841    0.0000 C.ar    1  UNL1       -0.0167
     22 C          12.1984    0.3708    0.0000 C.3     1  UNL1       -0.0440
     23 C          11.3266    1.8675    0.0000 C.3     1  UNL1       -0.0440
     24 C           9.5945   -2.1875    0.0000 C.3     1  UNL1        0.0788
     25 H           9.9951    1.3373    0.0000 H       1  UNL1        0.0358
     26 H           9.1980    1.3342    0.0000 H       1  UNL1        0.0358
     27 H           7.8210   -1.8179    0.0000 H       1  UNL1        0.0691
     28 H          10.4687   -0.2558    0.0000 H       1  UNL1        0.0575
     29 H           4.3154    1.4913    0.0000 H       1  UNL1        0.0662
     30 H           4.3154   -1.8179    0.0000 H       1  UNL1        0.0656
     31 H           2.8665   -0.9962    0.0000 H       1  UNL1        0.0655
     32 H           8.3500    2.1875    0.0000 H       1  UNL1        0.2922
     33 H          11.8904   -0.1673    0.0000 H       1  UNL1        0.0274
     34 H          11.9466    1.8699    0.0000 H       1  UNL1        0.0274
     35 H          11.3242    2.4875    0.0000 H       1  UNL1        0.0274
     36 H          10.7066    1.8651    0.0000 H       1  UNL1        0.0274
     37 H          12.7365    0.0629    0.0000 H       1  UNL1        0.0274
     38 H          12.5063    0.9090    0.0000 H       1  UNL1        0.0274
     39 H           8.9745   -2.1851    0.0000 H       1  UNL1        0.0660
     40 H           9.5921   -2.8075    0.0000 H       1  UNL1        0.0660
     41 H          10.2145   -2.1898    0.0000 H       1  UNL1        0.0660
     42 H           2.0000    0.5529    0.0000 H       1  UNL1        0.2921
@<TRIPOS>BOND
     1     1     8   ar
     2     1    15   ar
     3     2    11    1
     4     2    24    1
     5     3     9    1
     6     3    32    1
     7     4    12    2
     8     5    20    1
     9     5    42    1
    10     6     8   ar
    11     6     9   ar
    12     6    12   ar
    13     7     9   ar
    14     7    10    1
    15     7    11   ar
    16     8    14   ar
    17    10    16    1
    18    10    25    1
    19    10    26    1
    20    11    14   ar
    21    12    13   ar
    22    13    15   ar
    23    13    17   ar
    24    14    27    1
    25    15    18   ar
    26    16    19    2
    27    16    28    1
    28    17    20   ar
    29    17    29    1
    30    18    21   ar
    31    18    30    1
    32    19    22    1
    33    19    23    1
    34    20    21   ar
    35    21    31    1
    36    22    33    1
    37    22    37    1
    38    22    38    1
    39    23    34    1
    40    23    35    1
    41    23    36    1
    42    24    39    1
    43    24    40    1
    44    24    41    1
