@<TRIPOS>MOLECULE
IMPHY017105
 15 15 0 0 0
SMALL
GASTEIGER

@<TRIPOS>ATOM
      1 N           3.7320   -1.5000    0.0000 N.ar    1  UNL1       -0.2627
      2 C           2.8660    0.0000    0.0000 C.ar    1  UNL1       -0.0075
      3 C           3.7320    0.5000    0.0000 C.ar    1  UNL1       -0.0517
      4 C           2.8660   -1.0000    0.0000 C.ar    1  UNL1        0.0347
      5 C           4.5981    0.0000    0.0000 C.ar    1  UNL1       -0.0430
      6 C           2.0000    0.5000    0.0000 C.2     1  UNL1       -0.0603
      7 C           4.5981   -1.0000    0.0000 C.ar    1  UNL1        0.0276
      8 C           2.0000    1.5000    0.0000 C.2     1  UNL1       -0.0981
      9 H           3.7320    1.1200    0.0000 H       1  UNL1        0.0624
     10 H           2.3291   -1.3100    0.0000 H       1  UNL1        0.0835
     11 H           5.1350    0.3100    0.0000 H       1  UNL1        0.0633
     12 H           1.4631    0.1900    0.0000 H       1  UNL1        0.0618
     13 H           5.1350   -1.3100    0.0000 H       1  UNL1        0.0829
     14 H           2.5369    1.8100    0.0000 H       1  UNL1        0.0535
     15 H           1.4631    1.8100    0.0000 H       1  UNL1        0.0535
@<TRIPOS>BOND
     1     1     4   ar
     2     1     7   ar
     3     2     3   ar
     4     2     4   ar
     5     2     6    1
     6     3     5   ar
     7     3     9    1
     8     4    10    1
     9     5     7   ar
    10     5    11    1
    11     6     8    2
    12     6    12    1
    13     7    13    1
    14     8    14    1
    15     8    15    1
