@<TRIPOS>MOLECULE
IMPHY006339
 18 17 0 0 0
SMALL
GASTEIGER

@<TRIPOS>ATOM
      1 S           6.3301    0.7500    0.0000 S.3     1  UNL1       -0.1636
      2 O           2.8660    0.7500    0.0000 O.3     1  UNL1       -0.4679
      3 O           3.7320   -0.7500    0.0000 O.2     1  UNL1       -0.2508
      4 C           4.5981    0.7500    0.0000 C.3     1  UNL1        0.0539
      5 C           5.4641    0.2500    0.0000 C.3     1  UNL1        0.0035
      6 C           3.7320    0.2500    0.0000 C.2     1  UNL1        0.3076
      7 C           7.1962    0.2500    0.0000 C.3     1  UNL1       -0.0181
      8 C           2.0000    0.2500    0.0000 C.3     1  UNL1        0.0817
      9 H           4.9966    1.2250    0.0000 H       1  UNL1        0.0386
     10 H           4.1996    1.2250    0.0000 H       1  UNL1        0.0386
     11 H           5.0656   -0.2249    0.0000 H       1  UNL1        0.0381
     12 H           5.8626   -0.2249    0.0000 H       1  UNL1        0.0381
     13 H           6.8862   -0.2869    0.0000 H       1  UNL1        0.0340
     14 H           7.7331   -0.0600    0.0000 H       1  UNL1        0.0340
     15 H           7.5062    0.7869    0.0000 H       1  UNL1        0.0340
     16 H           1.6900    0.7869    0.0000 H       1  UNL1        0.0661
     17 H           1.4631   -0.0600    0.0000 H       1  UNL1        0.0661
     18 H           2.3100   -0.2869    0.0000 H       1  UNL1        0.0661
@<TRIPOS>BOND
     1     1     5    1
     2     1     7    1
     3     2     6    1
     4     2     8    1
     5     3     6    2
     6     4     5    1
     7     4     6    1
     8     4     9    1
     9     4    10    1
    10     5    11    1
    11     5    12    1
    12     7    13    1
    13     7    14    1
    14     7    15    1
    15     8    16    1
    16     8    17    1
    17     8    18    1
