@<TRIPOS>MOLECULE
IMPHY012258
 27 26 0 0 0
SMALL
GASTEIGER

@<TRIPOS>ATOM
      1 O           4.5981   -0.5950    0.0000 O.3     1  UNL1       -0.3874
      2 C           4.5981    0.4050    0.0000 C.3     1  UNL1        0.0775
      3 C           5.4641    0.9050    0.0000 C.3     1  UNL1        0.0015
      4 C           3.7320    0.9050    0.0000 C.2     1  UNL1       -0.0569
      5 C           2.8660    0.4050    0.0000 C.2     1  UNL1       -0.0772
      6 C           6.3301    0.4050    0.0000 C.2     1  UNL1       -0.0522
      7 C           2.0000    0.9050    0.0000 C.3     1  UNL1       -0.0440
      8 C           2.8660   -0.5950    0.0000 C.3     1  UNL1       -0.0440
      9 C           7.1962    0.9050    0.0000 C.2     1  UNL1       -0.0661
     10 C           6.3301   -0.5950    0.0000 C.2     1  UNL1       -0.0954
     11 C           8.0622    0.4050    0.0000 C.2     1  UNL1       -0.0985
     12 H           5.1350    0.0950    0.0000 H       1  UNL1        0.0641
     13 H           5.8626    1.3800    0.0000 H       1  UNL1        0.0341
     14 H           5.0656    1.3800    0.0000 H       1  UNL1        0.0341
     15 H           3.7320    1.5250    0.0000 H       1  UNL1        0.0597
     16 H           2.3100    1.4419    0.0000 H       1  UNL1        0.0274
     17 H           1.4631    1.2150    0.0000 H       1  UNL1        0.0274
     18 H           1.6900    0.3681    0.0000 H       1  UNL1        0.0274
     19 H           2.2460   -0.5950    0.0000 H       1  UNL1        0.0274
     20 H           2.8660   -1.2150    0.0000 H       1  UNL1        0.0274
     21 H           3.4860   -0.5950    0.0000 H       1  UNL1        0.0274
     22 H           4.0611   -0.9050    0.0000 H       1  UNL1        0.2102
     23 H           7.1962    1.5250    0.0000 H       1  UNL1        0.0614
     24 H           5.7932   -0.9050    0.0000 H       1  UNL1        0.0537
     25 H           6.8671   -0.9050    0.0000 H       1  UNL1        0.0537
     26 H           8.0622   -0.2150    0.0000 H       1  UNL1        0.0535
     27 H           8.5991    0.7150    0.0000 H       1  UNL1        0.0535
@<TRIPOS>BOND
     1     1     2    1
     2     1    22    1
     3     2     3    1
     4     2     4    1
     5     2    12    1
     6     3     6    1
     7     3    13    1
     8     3    14    1
     9     4     5    2
    10     4    15    1
    11     5     7    1
    12     5     8    1
    13     6     9    1
    14     6    10    2
    15     7    16    1
    16     7    17    1
    17     7    18    1
    18     8    19    1
    19     8    20    1
    20     8    21    1
    21     9    11    2
    22     9    23    1
    23    10    24    1
    24    10    25    1
    25    11    26    1
    26    11    27    1
