@<TRIPOS>MOLECULE
IMPHY015222
 24 23 0 0 0
SMALL
GASTEIGER

@<TRIPOS>ATOM
      1 O           6.3301   -1.2500    0.0000 O.2     1  UNL1       -0.2890
      2 O           7.1962    1.2500    0.0000 O.2     1  UNL1       -0.2893
      3 C           3.7320    0.2500    0.0000 C.3     1  UNL1       -0.0529
      4 C           4.5981   -0.2500    0.0000 C.3     1  UNL1       -0.0459
      5 C           2.8660   -0.2500    0.0000 C.3     1  UNL1       -0.0559
      6 C           5.4641    0.2500    0.0000 C.3     1  UNL1        0.0134
      7 C           2.0000    0.2500    0.0000 C.3     1  UNL1       -0.0653
      8 C           6.3301   -0.2500    0.0000 C.2     1  UNL1        0.1978
      9 C           7.1962    0.2500    0.0000 C.2     1  UNL1        0.1950
     10 C           8.0622   -0.2500    0.0000 C.3     1  UNL1        0.0015
     11 H           4.1306    0.7249    0.0000 H       1  UNL1        0.0265
     12 H           3.3335    0.7249    0.0000 H       1  UNL1        0.0265
     13 H           4.1996   -0.7249    0.0000 H       1  UNL1        0.0269
     14 H           4.9966   -0.7249    0.0000 H       1  UNL1        0.0269
     15 H           2.4675   -0.7249    0.0000 H       1  UNL1        0.0263
     16 H           3.2646   -0.7249    0.0000 H       1  UNL1        0.0263
     17 H           5.8626    0.7249    0.0000 H       1  UNL1        0.0346
     18 H           5.0656    0.7249    0.0000 H       1  UNL1        0.0346
     19 H           2.3100    0.7869    0.0000 H       1  UNL1        0.0230
     20 H           1.4631    0.5600    0.0000 H       1  UNL1        0.0230
     21 H           1.6900   -0.2869    0.0000 H       1  UNL1        0.0230
     22 H           7.7522   -0.7869    0.0000 H       1  UNL1        0.0310
     23 H           8.5991   -0.5600    0.0000 H       1  UNL1        0.0310
     24 H           8.3722    0.2869    0.0000 H       1  UNL1        0.0310
@<TRIPOS>BOND
     1     1     8    2
     2     2     9    2
     3     3     4    1
     4     3     5    1
     5     3    11    1
     6     3    12    1
     7     4     6    1
     8     4    13    1
     9     4    14    1
    10     5     7    1
    11     5    15    1
    12     5    16    1
    13     6     8    1
    14     6    17    1
    15     6    18    1
    16     7    19    1
    17     7    20    1
    18     7    21    1
    19     8     9    1
    20     9    10    1
    21    10    22    1
    22    10    23    1
    23    10    24    1
