@<TRIPOS>MOLECULE
IMPHY005948
 34 35 0 0 0
SMALL
GASTEIGER

@<TRIPOS>ATOM
      1 O           6.0010   -2.5950    0.0000 O.3     1  UNL1       -0.4914
      2 O           2.5369   -0.5950    0.0000 O.3     1  UNL1       -0.5059
      3 O           4.2690   -3.5950    0.0000 O.3     1  UNL1       -0.5032
      4 O           3.4030    0.9050    0.0000 O.2     1  UNL1       -0.2872
      5 C           4.2690   -0.5950    0.0000 C.ar    1  UNL1        0.0667
      6 C           5.1350   -1.0950    0.0000 C.ar    1  UNL1       -0.0020
      7 C           3.4030   -1.0950    0.0000 C.ar    1  UNL1        0.1313
      8 C           5.1350   -2.0950    0.0000 C.ar    1  UNL1        0.1622
      9 C           4.2690   -2.5950    0.0000 C.ar    1  UNL1        0.1620
     10 C           3.4030   -2.0950    0.0000 C.ar    1  UNL1        0.0257
     11 C           4.2690    0.4050    0.0000 C.2     1  UNL1        0.1897
     12 C           6.0010    2.4050    0.0000 C.ar    1  UNL1       -0.0249
     13 C           5.1350    0.9050    0.0000 C.2     1  UNL1       -0.0137
     14 C           5.1350    1.9050    0.0000 C.2     1  UNL1       -0.0510
     15 C           6.8671    1.9050    0.0000 C.ar    1  UNL1       -0.0546
     16 C           6.0010    3.4050    0.0000 C.ar    1  UNL1       -0.0546
     17 C           7.7331    2.4050    0.0000 C.ar    1  UNL1       -0.0612
     18 C           6.8671    3.9050    0.0000 C.ar    1  UNL1       -0.0612
     19 C           7.7331    3.4050    0.0000 C.ar    1  UNL1       -0.0617
     20 C           6.8671   -2.0950    0.0000 C.3     1  UNL1        0.0790
     21 H           5.6720   -0.7850    0.0000 H       1  UNL1        0.0663
     22 H           2.8660   -2.4050    0.0000 H       1  UNL1        0.0692
     23 H           5.6720    0.5950    0.0000 H       1  UNL1        0.0656
     24 H           4.5981    2.2150    0.0000 H       1  UNL1        0.0625
     25 H           6.8671    1.2850    0.0000 H       1  UNL1        0.0623
     26 H           5.4641    3.7150    0.0000 H       1  UNL1        0.0623
     27 H           8.2700    2.0950    0.0000 H       1  UNL1        0.0618
     28 H           6.8671    4.5250    0.0000 H       1  UNL1        0.0618
     29 H           8.2700    3.7150    0.0000 H       1  UNL1        0.0618
     30 H           2.0000   -0.9050    0.0000 H       1  UNL1        0.2922
     31 H           3.7320   -3.9050    0.0000 H       1  UNL1        0.2923
     32 H           7.1771   -2.6319    0.0000 H       1  UNL1        0.0660
     33 H           7.4040   -1.7850    0.0000 H       1  UNL1        0.0660
     34 H           6.5571   -1.5581    0.0000 H       1  UNL1        0.0660
@<TRIPOS>BOND
     1     1     8    1
     2     1    20    1
     3     2     7    1
     4     2    30    1
     5     3     9    1
     6     3    31    1
     7     4    11    2
     8     5     6   ar
     9     5     7   ar
    10     5    11    1
    11     6     8   ar
    12     6    21    1
    13     7    10   ar
    14     8     9   ar
    15     9    10   ar
    16    10    22    1
    17    11    13    1
    18    12    14    1
    19    12    15   ar
    20    12    16   ar
    21    13    14    2
    22    13    23    1
    23    14    24    1
    24    15    17   ar
    25    15    25    1
    26    16    18   ar
    27    16    26    1
    28    17    19   ar
    29    17    27    1
    30    18    19   ar
    31    18    28    1
    32    19    29    1
    33    20    32    1
    34    20    33    1
    35    20    34    1
