@<TRIPOS>MOLECULE
IMPHY003416
 22 21 0 0 0
SMALL
GASTEIGER

@<TRIPOS>ATOM
      1 O           3.7320   -1.2500    0.0000 O.3     1  UNL1       -0.4648
      2 O           6.3301    1.2500    0.0000 O.3     1  UNL1       -0.4795
      3 OXT         5.4641    2.7500    0.0000 O.2     1  UNL1       -0.2493
      4 O           2.0000   -1.2500    0.0000 O.2     1  UNL1       -0.2512
      5 N           3.7320    1.7500    0.0000 N.3     1  UNL1       -0.3183
      6 C           4.5981    0.2500    0.0000 C.3     1  UNL1        0.0071
      7 CA          4.5981    1.2500    0.0000 C.3     1  UNL1        0.1063
      8 C           3.7320   -0.2500    0.0000 C.3     1  UNL1        0.0944
      9 C           5.4641    1.7500    0.0000 C.2     1  UNL1        0.3218
     10 C           2.8660   -1.7500    0.0000 C.2     1  UNL1        0.3039
     11 C           2.8660   -2.7500    0.0000 C.3     1  UNL1        0.0332
     12 H           4.8101   -0.3326    0.0000 H       1  UNL1        0.0318
     13 H           5.2087    0.3577    0.0000 H       1  UNL1        0.0318
     14 HA          4.5981    1.8700    0.0000 H       1  UNL1        0.0575
     15 H           3.5200    0.3326    0.0000 H       1  UNL1        0.0698
     16 H           3.1215   -0.3577    0.0000 H       1  UNL1        0.0698
     17 H1          3.1951    1.4400    0.0000 H       1  UNL1        0.1190
     18 H2          3.7320    2.3700    0.0000 H       1  UNL1        0.1190
     19 H           2.2460   -2.7500    0.0000 H       1  UNL1        0.0342
     20 H           2.8660   -3.3700    0.0000 H       1  UNL1        0.0342
     21 H           3.4860   -2.7500    0.0000 H       1  UNL1        0.0342
     22 H           6.8671    1.5600    0.0000 H       1  UNL1        0.2951
@<TRIPOS>BOND
     1     1     8    1
     2     1    10    1
     3     2     9    1
     4     2    22    1
     5     3     9    2
     6     4    10    2
     7     7     5    1
     8     5    17    1
     9     5    18    1
    10     6     7    1
    11     6     8    1
    12     6    12    1
    13     6    13    1
    14     7     9    1
    15     7    14    1
    16     8    15    1
    17     8    16    1
    18    10    11    1
    19    11    19    1
    20    11    20    1
    21    11    21    1
