@<TRIPOS>MOLECULE
IMPHY006495
 26 26 0 0 0
SMALL
GASTEIGER

@<TRIPOS>ATOM
      1 N           5.4641   -0.6900    0.0000 N.3     1  UNL1       -0.3132
      2 C           4.5981   -0.1900    0.0000 C.3     1  UNL1        0.0076
      3 C           4.5981    0.8100    0.0000 C.3     1  UNL1       -0.0375
      4 C           5.4641    1.3100    0.0000 C.3     1  UNL1       -0.0505
      5 C           3.7320   -0.6900    0.0000 C.3     1  UNL1       -0.0378
      6 C           6.3301    0.8100    0.0000 C.3     1  UNL1       -0.0404
      7 C           6.3301   -0.1900    0.0000 C.3     1  UNL1       -0.0039
      8 C           2.8660   -0.1900    0.0000 C.3     1  UNL1       -0.0545
      9 C           2.0000   -0.6900    0.0000 C.3     1  UNL1       -0.0652
     10 H           4.5981   -0.8100    0.0000 H       1  UNL1        0.0460
     11 H           4.3860    1.3926    0.0000 H       1  UNL1        0.0280
     12 H           3.9875    0.7023    0.0000 H       1  UNL1        0.0280
     13 H           5.8626    1.7850    0.0000 H       1  UNL1        0.0266
     14 H           5.0656    1.7850    0.0000 H       1  UNL1        0.0266
     15 H           3.3335   -1.1650    0.0000 H       1  UNL1        0.0280
     16 H           4.1306   -1.1650    0.0000 H       1  UNL1        0.0280
     17 H           6.9407    0.7023    0.0000 H       1  UNL1        0.0277
     18 H           6.5422    1.3926    0.0000 H       1  UNL1        0.0277
     19 H           6.5422   -0.7726    0.0000 H       1  UNL1        0.0424
     20 H           6.9407   -0.0823    0.0000 H       1  UNL1        0.0424
     21 H           5.4641   -1.3100    0.0000 H       1  UNL1        0.1222
     22 H           3.2646    0.2849    0.0000 H       1  UNL1        0.0263
     23 H           2.4675    0.2849    0.0000 H       1  UNL1        0.0263
     24 H           1.6900   -0.1531    0.0000 H       1  UNL1        0.0230
     25 H           1.4631   -1.0000    0.0000 H       1  UNL1        0.0230
     26 H           2.3100   -1.2269    0.0000 H       1  UNL1        0.0230
@<TRIPOS>BOND
     1     1     2    1
     2     1     7    1
     3     1    21    1
     4     2     3    1
     5     2     5    1
     6     2    10    1
     7     3     4    1
     8     3    11    1
     9     3    12    1
    10     4     6    1
    11     4    13    1
    12     4    14    1
    13     5     8    1
    14     5    15    1
    15     5    16    1
    16     6     7    1
    17     6    17    1
    18     6    18    1
    19     7    19    1
    20     7    20    1
    21     8     9    1
    22     8    22    1
    23     8    23    1
    24     9    24    1
    25     9    25    1
    26     9    26    1
