@<TRIPOS>MOLECULE
IMPHY008454
 51 54 0 0 0
SMALL
GASTEIGER

@<TRIPOS>ATOM
      1 O           9.1534    1.5072    0.0000 O.3     1  UNL1       -0.4813
      2 O           2.1888    1.4949    0.0000 O.3     1  UNL1       -0.5064
      3 N           5.6783    0.5906    0.0000 N.ar    1  UNL1       -0.3535
      4 C           9.4829    0.5191    0.0000 C.3     1  UNL1        0.1266
      5 C          10.2286   -0.1472    0.0000 C.3     1  UNL1       -0.0060
      6 C           7.4622    0.9649    0.0000 C.ar    1  UNL1        0.0404
      7 C           6.4840    1.1728    0.0000 C.ar    1  UNL1        0.0582
      8 C           8.1313    1.7080    0.0000 C.ar    1  UNL1        0.1309
      9 C           8.7859   -0.2550    0.0000 C.2     1  UNL1       -0.0406
     10 C           6.1750    2.1239    0.0000 C.ar    1  UNL1        0.0082
     11 C          10.4328    0.8318    0.0000 C.3     1  UNL1       -0.0212
     12 C           7.7688   -0.0306    0.0000 C.2     1  UNL1       -0.0493
     13 C           5.1810    2.1213    0.0000 C.ar    1  UNL1        0.0079
     14 C          10.0245   -1.1261    0.0000 C.3     1  UNL1       -0.0306
     15 C           4.8746    1.1756    0.0000 C.ar    1  UNL1        0.0510
     16 C           7.8223    2.6591    0.0000 C.ar    1  UNL1       -0.0186
     17 C           6.8442    2.8670    0.0000 C.ar    1  UNL1       -0.0485
     18 C           4.4994    2.9008    0.0000 C.ar    1  UNL1       -0.0456
     19 C           3.8654    0.9439    0.0000 C.ar    1  UNL1        0.0040
     20 C          10.7702   -1.7924    0.0000 C.2     1  UNL1       -0.0851
     21 C           3.4851    2.6924    0.0000 C.ar    1  UNL1       -0.0083
     22 C           3.1660    1.7074    0.0000 C.ar    1  UNL1        0.1217
     23 C          10.5661   -2.7713    0.0000 C.2     1  UNL1       -0.0796
     24 C           2.8182    3.4376    0.0000 C.3     1  UNL1       -0.0362
     25 C          11.3118   -3.4376    0.0000 C.3     1  UNL1       -0.0440
     26 C           9.6162   -3.0840    0.0000 C.3     1  UNL1       -0.0440
     27 H          10.8044   -0.3772    0.0000 H       1  UNL1        0.0310
     28 H          10.5552    0.3799    0.0000 H       1  UNL1        0.0310
     29 H           8.9753   -0.8454    0.0000 H       1  UNL1        0.0611
     30 H          10.6266    0.2428    0.0000 H       1  UNL1        0.0271
     31 H          11.0217    1.0256    0.0000 H       1  UNL1        0.0271
     32 H          10.2389    1.4207    0.0000 H       1  UNL1        0.0271
     33 H           7.3486   -0.4865    0.0000 H       1  UNL1        0.0623
     34 H           9.4488   -0.8961    0.0000 H       1  UNL1        0.0309
     35 H           9.6980   -1.6532    0.0000 H       1  UNL1        0.0309
     36 H           5.6772   -0.0294    0.0000 H       1  UNL1        0.1659
     37 H           8.2372    3.1199    0.0000 H       1  UNL1        0.0654
     38 H           6.6526    3.4567    0.0000 H       1  UNL1        0.0625
     39 H           4.6973    3.4884    0.0000 H       1  UNL1        0.0628
     40 H           3.6812    0.3519    0.0000 H       1  UNL1        0.0675
     41 H          11.3591   -1.5985    0.0000 H       1  UNL1        0.0571
     42 H           3.2802    3.8511    0.0000 H       1  UNL1        0.0279
     43 H           2.4047    3.8996    0.0000 H       1  UNL1        0.0279
     44 H           2.3562    3.0241    0.0000 H       1  UNL1        0.0279
     45 H          10.8987   -3.8999    0.0000 H       1  UNL1        0.0274
     46 H          11.7741   -3.8507    0.0000 H       1  UNL1        0.0274
     47 H          11.7249   -2.9752    0.0000 H       1  UNL1        0.0274
     48 H           9.4224   -2.4951    0.0000 H       1  UNL1        0.0274
     49 H           9.0273   -3.2779    0.0000 H       1  UNL1        0.0274
     50 H           9.8101   -3.6729    0.0000 H       1  UNL1        0.0274
     51 H           2.0000    0.9043    0.0000 H       1  UNL1        0.2921
@<TRIPOS>BOND
     1     1     4    1
     2     1     8    1
     3     2    22    1
     4     2    51    1
     5     3     7   ar
     6     3    15   ar
     7     3    36    1
     8     4     5    1
     9     4     9    1
    10     4    11    1
    11     5    14    1
    12     5    27    1
    13     5    28    1
    14     6     7   ar
    15     6     8   ar
    16     6    12    1
    17     7    10   ar
    18     8    16   ar
    19     9    12    2
    20     9    29    1
    21    10    13   ar
    22    10    17   ar
    23    11    30    1
    24    11    31    1
    25    11    32    1
    26    12    33    1
    27    13    15   ar
    28    13    18   ar
    29    14    20    1
    30    14    34    1
    31    14    35    1
    32    15    19   ar
    33    16    17   ar
    34    16    37    1
    35    17    38    1
    36    18    21   ar
    37    18    39    1
    38    19    22   ar
    39    19    40    1
    40    20    23    2
    41    20    41    1
    42    21    22   ar
    43    21    24    1
    44    23    25    1
    45    23    26    1
    46    24    42    1
    47    24    43    1
    48    24    44    1
    49    25    45    1
    50    25    46    1
    51    25    47    1
    52    26    48    1
    53    26    49    1
    54    26    50    1
