@<TRIPOS>MOLECULE
IMPHY010938
 55 54 0 0 0
SMALL
GASTEIGER

@<TRIPOS>ATOM
      1 O           2.8660    0.7500    0.0000 O.3     1  UNL1       -0.4679
      2 O           3.7320   -0.7500    0.0000 O.2     1  UNL1       -0.2509
      3 C          14.9904   -0.2500    0.0000 C.3     1  UNL1       -0.0530
      4 C          15.8564   -0.7500    0.0000 C.3     1  UNL1       -0.0531
      5 C          14.1244   -0.7500    0.0000 C.3     1  UNL1       -0.0522
      6 C           7.1962    0.2500    0.0000 C.3     1  UNL1       -0.0530
      7 C           8.0622    0.7500    0.0000 C.3     1  UNL1       -0.0522
      8 C           6.3301    0.7500    0.0000 C.3     1  UNL1       -0.0526
      9 C          16.7224   -0.2500    0.0000 C.3     1  UNL1       -0.0533
     10 C          13.2583   -0.2500    0.0000 C.3     1  UNL1       -0.0422
     11 C           8.9282    0.2500    0.0000 C.3     1  UNL1       -0.0422
     12 C           5.4641    0.2500    0.0000 C.3     1  UNL1       -0.0430
     13 C          17.5885   -0.7500    0.0000 C.3     1  UNL1       -0.0559
     14 C          12.3923   -0.7500    0.0000 C.3     1  UNL1        0.0091
     15 C           9.7942    0.7500    0.0000 C.3     1  UNL1        0.0091
     16 C           4.5981    0.7500    0.0000 C.3     1  UNL1        0.0449
     17 C          18.4545   -0.2500    0.0000 C.3     1  UNL1       -0.0653
     18 C          11.5263   -0.2500    0.0000 C.1     1  UNL1       -0.1022
     19 C          10.6603    0.2500    0.0000 C.1     1  UNL1       -0.1022
     20 C           3.7320    0.2500    0.0000 C.2     1  UNL1        0.3068
     21 C           2.0000    0.2500    0.0000 C.3     1  UNL1        0.0817
     22 H          15.3889    0.2249    0.0000 H       1  UNL1        0.0265
     23 H          14.5919    0.2249    0.0000 H       1  UNL1        0.0265
     24 H          15.4579   -1.2250    0.0000 H       1  UNL1        0.0265
     25 H          16.2549   -1.2250    0.0000 H       1  UNL1        0.0265
     26 H          13.7258   -1.2250    0.0000 H       1  UNL1        0.0266
     27 H          14.5229   -1.2250    0.0000 H       1  UNL1        0.0266
     28 H           6.7976   -0.2249    0.0000 H       1  UNL1        0.0265
     29 H           7.5947   -0.2249    0.0000 H       1  UNL1        0.0265
     30 H           8.4607    1.2250    0.0000 H       1  UNL1        0.0266
     31 H           7.6636    1.2250    0.0000 H       1  UNL1        0.0266
     32 H           6.7287    1.2250    0.0000 H       1  UNL1        0.0265
     33 H           5.9316    1.2250    0.0000 H       1  UNL1        0.0265
     34 H          17.1210    0.2249    0.0000 H       1  UNL1        0.0265
     35 H          16.3239    0.2249    0.0000 H       1  UNL1        0.0265
     36 H          13.6569    0.2249    0.0000 H       1  UNL1        0.0274
     37 H          12.8598    0.2249    0.0000 H       1  UNL1        0.0274
     38 H           8.5297   -0.2249    0.0000 H       1  UNL1        0.0274
     39 H           9.3267   -0.2249    0.0000 H       1  UNL1        0.0274
     40 H           5.0656   -0.2249    0.0000 H       1  UNL1        0.0270
     41 H           5.8626   -0.2249    0.0000 H       1  UNL1        0.0270
     42 H          17.1899   -1.2250    0.0000 H       1  UNL1        0.0263
     43 H          17.9870   -1.2250    0.0000 H       1  UNL1        0.0263
     44 H          11.9938   -1.2250    0.0000 H       1  UNL1        0.0397
     45 H          12.7908   -1.2250    0.0000 H       1  UNL1        0.0397
     46 H          10.1928    1.2250    0.0000 H       1  UNL1        0.0397
     47 H           9.3957    1.2250    0.0000 H       1  UNL1        0.0397
     48 H           4.9966    1.2250    0.0000 H       1  UNL1        0.0377
     49 H           4.1996    1.2250    0.0000 H       1  UNL1        0.0377
     50 H          18.7645   -0.7869    0.0000 H       1  UNL1        0.0230
     51 H          18.9914    0.0600    0.0000 H       1  UNL1        0.0230
     52 H          18.1445    0.2869    0.0000 H       1  UNL1        0.0230
     53 H           1.6900    0.7869    0.0000 H       1  UNL1        0.0661
     54 H           1.4631   -0.0600    0.0000 H       1  UNL1        0.0661
     55 H           2.3100   -0.2869    0.0000 H       1  UNL1        0.0661
@<TRIPOS>BOND
     1     1    20    1
     2     1    21    1
     3     2    20    2
     4     3     4    1
     5     3     5    1
     6     3    22    1
     7     3    23    1
     8     4     9    1
     9     4    24    1
    10     4    25    1
    11     5    10    1
    12     5    26    1
    13     5    27    1
    14     6     7    1
    15     6     8    1
    16     6    28    1
    17     6    29    1
    18     7    11    1
    19     7    30    1
    20     7    31    1
    21     8    12    1
    22     8    32    1
    23     8    33    1
    24     9    13    1
    25     9    34    1
    26     9    35    1
    27    10    14    1
    28    10    36    1
    29    10    37    1
    30    11    15    1
    31    11    38    1
    32    11    39    1
    33    12    16    1
    34    12    40    1
    35    12    41    1
    36    13    17    1
    37    13    42    1
    38    13    43    1
    39    14    18    1
    40    14    44    1
    41    14    45    1
    42    15    19    1
    43    15    46    1
    44    15    47    1
    45    16    20    1
    46    16    48    1
    47    16    49    1
    48    17    50    1
    49    17    51    1
    50    17    52    1
    51    18    19    3
    52    21    53    1
    53    21    54    1
    54    21    55    1
