@<TRIPOS>MOLECULE
IMPHY010295
 42 46 0 0 0
SMALL
GASTEIGER

@<TRIPOS>ATOM
      1 O           4.3009    2.9742    0.0000 O.3     1  UNL1       -0.4536
      2 O           5.1660   -1.4890    0.0000 O.3     1  UNL1       -0.4248
      3 O           6.4022   -0.9125    0.0000 O.2     1  UNL1       -0.2494
      4 O           2.7696    3.8368    0.0000 O.2     1  UNL1       -0.2453
      5 O           3.0782   -3.8368    0.0000 O.2     1  UNL1       -0.4703
      6 C           4.6660    0.0499    0.0000 C.3     1  UNL1        0.0990
      7 C           3.8000    0.5499    0.0000 C.3     1  UNL1        0.0040
      8 C           5.5321    0.5499    0.0000 C.3     1  UNL1       -0.0202
      9 C           3.8000    1.5498    0.0000 C.2     1  UNL1       -0.0152
     10 C           4.6660    2.0498    0.0000 C.3     1  UNL1        0.1258
     11 C           5.5321    1.5498    0.0000 C.3     1  UNL1       -0.0078
     12 C           2.9061    0.0152    0.0000 C.3     1  UNL1       -0.0448
     13 C           2.9061    2.0845    0.0000 C.2     1  UNL1        0.0396
     14 C           2.0000    0.5290    0.0000 C.3     1  UNL1       -0.0483
     15 C           3.8570   -0.5379    0.0000 C.2     1  UNL1       -0.0233
     16 C           2.0000    1.5707    0.0000 C.3     1  UNL1       -0.0208
     17 C           5.4751   -0.5379    0.0000 C.2     1  UNL1        0.3233
     18 C           6.5169    0.7235    0.0000 C.3     1  UNL1       -0.0610
     19 C           3.3073    2.9937    0.0000 C.2     1  UNL1        0.3358
     20 C           4.1660   -1.4890    0.0000 C.2     1  UNL1        0.1389
     21 C           3.5782   -2.2980    0.0000 C.ar    1  UNL1        0.0547
     22 C           2.5782   -2.2980    0.0000 C.ar    1  UNL1       -0.0132
     23 C           3.8873   -3.2491    0.0000 C.ar    1  UNL1        0.1023
     24 C           2.2692   -3.2491    0.0000 C.ar    1  UNL1        0.0924
     25 H           3.8066   -0.3001    0.0000 H       1  UNL1        0.0361
     26 H           5.7441   -0.0328    0.0000 H       1  UNL1        0.0313
     27 H           5.3097    2.6050    0.0000 H       1  UNL1        0.0782
     28 H           6.1426    1.4422    0.0000 H       1  UNL1        0.0307
     29 H           5.7441    2.1325    0.0000 H       1  UNL1        0.0307
     30 H           2.5124   -0.4638    0.0000 H       1  UNL1        0.0271
     31 H           3.3107   -0.4546    0.0000 H       1  UNL1        0.0271
     32 H           1.3891    0.6351    0.0000 H       1  UNL1        0.0269
     33 H           1.7909   -0.0547    0.0000 H       1  UNL1        0.0269
     34 H           3.2674   -0.3463    0.0000 H       1  UNL1        0.0620
     35 H           1.7909    2.1544    0.0000 H       1  UNL1        0.0315
     36 H           1.3891    1.4646    0.0000 H       1  UNL1        0.0315
     37 H           6.6245    0.1129    0.0000 H       1  UNL1        0.0233
     38 H           7.1274    0.8312    0.0000 H       1  UNL1        0.0233
     39 H           6.4092    1.3341    0.0000 H       1  UNL1        0.0233
     40 H           2.2138   -1.7964    0.0000 H       1  UNL1        0.0656
     41 H           4.4769   -3.4406    0.0000 H       1  UNL1        0.1036
     42 H           1.6796   -3.4406    0.0000 H       1  UNL1        0.1029
@<TRIPOS>BOND
     1     1    10    1
     2     1    19    1
     3     2    17    1
     4     2    20    1
     5     3    17    2
     6     4    19    2
     7     5    23   ar
     8     5    24   ar
     9     6     7    1
    10     6     8    1
    11     6    15    1
    12     6    17    1
    13     7     9    1
    14     7    12    1
    15     7    25    1
    16     8    11    1
    17     8    18    1
    18     8    26    1
    19     9    10    1
    20     9    13    2
    21    10    11    1
    22    10    27    1
    23    11    28    1
    24    11    29    1
    25    12    14    1
    26    12    30    1
    27    12    31    1
    28    13    16    1
    29    13    19    1
    30    14    16    1
    31    14    32    1
    32    14    33    1
    33    15    20    2
    34    15    34    1
    35    16    35    1
    36    16    36    1
    37    18    37    1
    38    18    38    1
    39    18    39    1
    40    20    21    1
    41    21    22   ar
    42    21    23   ar
    43    22    24   ar
    44    22    40    1
    45    23    41    1
    46    24    42    1
