@<TRIPOS>MOLECULE
IMPHY005971
 24 23 0 0 0
SMALL
GASTEIGER

@<TRIPOS>ATOM
      1 S1          3.7320    0.0000    0.0000 S.3     1  <1>        -0.0910
      2 S2          3.7320   -1.0000    0.0000 S.3     1  <1>        -0.0931
      3 O1          6.3301    1.5000    0.0000 O.3     1  <1>        -0.4795
      4 O2          5.4641    3.0000    0.0000 O.2     1  <1>        -0.2492
      5 N1          3.7320    2.0000    0.0000 N.3     1  <1>        -0.3177
      6 C1          4.5981    1.5000    0.0000 C.3     1  <1>         0.1131
      7 C2          4.5981    0.5000    0.0000 C.3     1  <1>         0.0295
      8 C3          2.8660   -2.5000    0.0000 C.3     1  <1>        -0.0461
      9 C4          2.8660   -1.5000    0.0000 C.3     1  <1>         0.0037
     10 C5          5.4641    2.0000    0.0000 C.2     1  <1>         0.3226
     11 C6          2.0000   -3.0000    0.0000 C.3     1  <1>        -0.0645
     12 H1          4.5981    2.3500    0.0000 H       1  <1>         0.0582
     13 H2          4.8101   -0.0826    0.0000 H       1  <1>         0.0405
     14 H3          5.2087    0.6077    0.0000 H       1  <1>         0.0405
     15 H4          3.0781   -3.0826    0.0000 H       1  <1>         0.0271
     16 H5          3.4766   -2.3923    0.0000 H       1  <1>         0.0271
     17 H6          2.6540   -0.9174    0.0000 H       1  <1>         0.0384
     18 H7          2.2554   -1.6077    0.0000 H       1  <1>         0.0384
     19 H8          1.6900   -2.4631    0.0000 H       1  <1>         0.0230
     20 H9          1.4631   -3.3100    0.0000 H       1  <1>         0.0230
     21 H10         2.3100   -3.5369    0.0000 H       1  <1>         0.0230
     22 H11         3.1951    1.6900    0.0000 H       1  <1>         0.1190
     23 H12         3.7320    2.6200    0.0000 H       1  <1>         0.1190
     24 H13         6.8671    1.8100    0.0000 H       1  <1>         0.2951
@<TRIPOS>BOND
     1     1     2    1
     2     1     7    1
     3     2     9    1
     4     3    10    1
     5     3    24    1
     6     4    10    2
     7     5     6    1
     8     5    22    1
     9     5    23    1
    10     6     7    1
    11     6    10    1
    12     6    12    1
    13     7    13    1
    14     7    14    1
    15     8     9    1
    16     8    11    1
    17     8    15    1
    18     8    16    1
    19     9    17    1
    20     9    18    1
    21    11    19    1
    22    11    20    1
    23    11    21    1
