@<TRIPOS>MOLECULE
IMPHY011337
 82 86 0 0 0
SMALL
GASTEIGER

@<TRIPOS>ATOM
      1 O          13.8755   -3.7347    0.0000 O.3     1  UNL1       -0.4792
      2 O          12.0632   -4.9299    0.0000 O.3     1  UNL1       -0.4914
      3 O          15.1646   -0.9685    0.0000 O.2     1  UNL1       -0.2750
      4 O          17.4591   -4.6620    0.0000 O.3     1  UNL1       -0.4914
      5 O          18.4591   -2.9299    0.0000 O.3     1  UNL1       -0.5033
      6 O           8.5991   -0.9299    0.0000 O.2     1  UNL1       -0.2708
      7 O          14.4037    5.0665    0.0000 O.3     1  UNL1       -0.5068
      8 O           2.5369   -0.4299    0.0000 O.3     1  UNL1       -0.5068
      9 N          13.5183   -0.4304    0.0000 N.am    1  UNL1       -0.3144
     10 N           7.7331   -2.4299    0.0000 N.am    1  UNL1       -0.3115
     11 C          13.8755   -2.1252    0.0000 C.3     1  UNL1        0.1050
     12 C          14.4591   -2.9299    0.0000 C.3     1  UNL1        0.1406
     13 C          12.9292   -2.4299    0.0000 C.ar    1  UNL1        0.0143
     14 C          12.9292   -3.4299    0.0000 C.ar    1  UNL1        0.1669
     15 C          15.4591   -2.9299    0.0000 C.ar    1  UNL1       -0.0026
     16 C          14.1861   -1.1747    0.0000 C.2     1  UNL1        0.2245
     17 C          12.0632   -1.9299    0.0000 C.ar    1  UNL1       -0.0468
     18 C          12.0632   -3.9299    0.0000 C.ar    1  UNL1        0.1624
     19 C          11.1972   -2.4299    0.0000 C.ar    1  UNL1       -0.0209
     20 C          11.1972   -3.4299    0.0000 C.ar    1  UNL1       -0.0091
     21 C          15.9591   -3.7960    0.0000 C.ar    1  UNL1       -0.0096
     22 C          15.9591   -2.0639    0.0000 C.ar    1  UNL1       -0.0514
     23 C          13.8289    0.5202    0.0000 C.3     1  UNL1        0.0156
     24 C          16.9591   -3.7960    0.0000 C.ar    1  UNL1        0.1616
     25 C          16.9591   -2.0639    0.0000 C.ar    1  UNL1       -0.0161
     26 C          13.1611    1.2644    0.0000 C.3     1  UNL1       -0.0121
     27 C          10.3312   -1.9299    0.0000 C.2     1  UNL1       -0.0496
     28 C          17.4591   -2.9299    0.0000 C.ar    1  UNL1        0.1585
     29 C          13.4718    2.2150    0.0000 C.ar    1  UNL1       -0.0457
     30 C          11.1972   -5.4299    0.0000 C.3     1  UNL1        0.0790
     31 C           9.4651   -2.4299    0.0000 C.2     1  UNL1        0.0007
     32 C          14.4503    2.4212    0.0000 C.ar    1  UNL1       -0.0551
     33 C          12.8039    2.9593    0.0000 C.ar    1  UNL1       -0.0551
     34 C           8.5991   -1.9299    0.0000 C.2     1  UNL1        0.2369
     35 C          16.9591   -5.5280    0.0000 C.3     1  UNL1        0.0790
     36 C          14.7609    3.3717    0.0000 C.ar    1  UNL1       -0.0199
     37 C          13.1146    3.9098    0.0000 C.ar    1  UNL1       -0.0199
     38 C           6.8671   -1.9299    0.0000 C.3     1  UNL1        0.0159
     39 C          14.0931    4.1160    0.0000 C.ar    1  UNL1        0.1169
     40 C           6.0010   -2.4299    0.0000 C.3     1  UNL1       -0.0120
     41 C           5.1350   -1.9299    0.0000 C.ar    1  UNL1       -0.0457
     42 C           5.1350   -0.9299    0.0000 C.ar    1  UNL1       -0.0551
     43 C           4.2690   -2.4299    0.0000 C.ar    1  UNL1       -0.0551
     44 C           4.2690   -0.4299    0.0000 C.ar    1  UNL1       -0.0199
     45 C           3.4030   -1.9299    0.0000 C.ar    1  UNL1       -0.0199
     46 C           3.4030   -0.9299    0.0000 C.ar    1  UNL1        0.1169
     47 H          14.4880   -2.0290    0.0000 H       1  UNL1        0.0484
     48 H          14.7408   -3.4822    0.0000 H       1  UNL1        0.0795
     49 H          12.0632   -1.3099    0.0000 H       1  UNL1        0.0628
     50 H          10.6603   -3.7399    0.0000 H       1  UNL1        0.0661
     51 H          12.9116   -0.5582    0.0000 H       1  UNL1        0.1487
     52 H          15.6491   -4.3329    0.0000 H       1  UNL1        0.0659
     53 H          15.6491   -1.5270    0.0000 H       1  UNL1        0.0623
     54 H          14.3759    0.2281    0.0000 H       1  UNL1        0.0465
     55 H          14.2115    1.0081    0.0000 H       1  UNL1        0.0465
     56 H          17.2691   -1.5270    0.0000 H       1  UNL1        0.0655
     57 H          12.6142    1.5565    0.0000 H       1  UNL1        0.0328
     58 H          12.7785    0.7765    0.0000 H       1  UNL1        0.0328
     59 H          10.3312   -1.3099    0.0000 H       1  UNL1        0.0625
     60 H          10.8872   -4.8930    0.0000 H       1  UNL1        0.0660
     61 H          10.6603   -5.7399    0.0000 H       1  UNL1        0.0660
     62 H          11.5072   -5.9669    0.0000 H       1  UNL1        0.0660
     63 H           9.4651   -3.0499    0.0000 H       1  UNL1        0.0669
     64 H          18.7691   -2.3930    0.0000 H       1  UNL1        0.2923
     65 H          14.8643    1.9597    0.0000 H       1  UNL1        0.0621
     66 H          12.1972    2.8314    0.0000 H       1  UNL1        0.0621
     67 H          16.4221   -5.2180    0.0000 H       1  UNL1        0.0660
     68 H          16.6491   -6.0649    0.0000 H       1  UNL1        0.0660
     69 H          17.4960   -5.8380    0.0000 H       1  UNL1        0.0660
     70 H          15.3676    3.4996    0.0000 H       1  UNL1        0.0654
     71 H          12.7005    4.3713    0.0000 H       1  UNL1        0.0654
     72 H           7.7331   -3.0499    0.0000 H       1  UNL1        0.1490
     73 H           7.2656   -1.4550    0.0000 H       1  UNL1        0.0465
     74 H           6.4685   -1.4550    0.0000 H       1  UNL1        0.0465
     75 H           5.6025   -2.9049    0.0000 H       1  UNL1        0.0328
     76 H           6.3996   -2.9049    0.0000 H       1  UNL1        0.0328
     77 H           5.6720   -0.6199    0.0000 H       1  UNL1        0.0621
     78 H           4.2690   -3.0499    0.0000 H       1  UNL1        0.0621
     79 H          13.9897    5.5280    0.0000 H       1  UNL1        0.2921
     80 H           4.2690    0.1901    0.0000 H       1  UNL1        0.0654
     81 H           2.8660   -2.2399    0.0000 H       1  UNL1        0.0654
     82 H           2.0000   -0.7399    0.0000 H       1  UNL1        0.2921
@<TRIPOS>BOND
     1     1    12    1
     2     1    14    1
     3     2    18    1
     4     2    30    1
     5     3    16    2
     6     4    24    1
     7     4    35    1
     8     5    28    1
     9     5    64    1
    10     6    34    2
    11     7    39    1
    12     7    79    1
    13     8    46    1
    14     8    82    1
    15     9    16   am
    16     9    23    1
    17     9    51    1
    18    10    34   am
    19    10    38    1
    20    10    72    1
    21    11    12    1
    22    11    13    1
    23    11    16    1
    24    11    47    1
    25    12    15    1
    26    12    48    1
    27    13    14   ar
    28    13    17   ar
    29    14    18   ar
    30    15    21   ar
    31    15    22   ar
    32    17    19   ar
    33    17    49    1
    34    18    20   ar
    35    19    20   ar
    36    19    27    1
    37    20    50    1
    38    21    24   ar
    39    21    52    1
    40    22    25   ar
    41    22    53    1
    42    23    26    1
    43    23    54    1
    44    23    55    1
    45    24    28   ar
    46    25    28   ar
    47    25    56    1
    48    26    29    1
    49    26    57    1
    50    26    58    1
    51    27    31    2
    52    27    59    1
    53    29    32   ar
    54    29    33   ar
    55    30    60    1
    56    30    61    1
    57    30    62    1
    58    31    34    1
    59    31    63    1
    60    32    36   ar
    61    32    65    1
    62    33    37   ar
    63    33    66    1
    64    35    67    1
    65    35    68    1
    66    35    69    1
    67    36    39   ar
    68    36    70    1
    69    37    39   ar
    70    37    71    1
    71    38    40    1
    72    38    73    1
    73    38    74    1
    74    40    41    1
    75    40    75    1
    76    40    76    1
    77    41    42   ar
    78    41    43   ar
    79    42    44   ar
    80    42    77    1
    81    43    45   ar
    82    43    78    1
    83    44    46   ar
    84    44    80    1
    85    45    46   ar
    86    45    81    1
