@<TRIPOS>MOLECULE
IMPHY012249
 60 59 0 0 0
SMALL
GASTEIGER

@<TRIPOS>ATOM
      1 O           2.5369    0.2500    0.0000 O.3     1  UNL1       -0.3950
      2 C          11.1972    0.2500    0.0000 C.3     1  UNL1       -0.0531
      3 C          10.3312   -0.2500    0.0000 C.3     1  UNL1       -0.0531
      4 C          12.0632   -0.2500    0.0000 C.3     1  UNL1       -0.0531
      5 C           9.4651    0.2500    0.0000 C.3     1  UNL1       -0.0531
      6 C          12.9292    0.2500    0.0000 C.3     1  UNL1       -0.0531
      7 C           8.5991   -0.2500    0.0000 C.3     1  UNL1       -0.0531
      8 C          13.7953   -0.2500    0.0000 C.3     1  UNL1       -0.0531
      9 C           7.7331    0.2500    0.0000 C.3     1  UNL1       -0.0531
     10 C          14.6613    0.2500    0.0000 C.3     1  UNL1       -0.0531
     11 C           6.8671   -0.2500    0.0000 C.3     1  UNL1       -0.0531
     12 C          15.5273   -0.2500    0.0000 C.3     1  UNL1       -0.0531
     13 C           6.0010    0.2500    0.0000 C.3     1  UNL1       -0.0530
     14 C          16.3933    0.2500    0.0000 C.3     1  UNL1       -0.0531
     15 C           5.1350   -0.2500    0.0000 C.3     1  UNL1       -0.0510
     16 C          17.2594   -0.2500    0.0000 C.3     1  UNL1       -0.0533
     17 C           4.2690    0.2500    0.0000 C.3     1  UNL1       -0.0297
     18 C          18.1254    0.2500    0.0000 C.3     1  UNL1       -0.0559
     19 C           3.4030   -0.2500    0.0000 C.3     1  UNL1        0.0442
     20 C          18.9914   -0.2500    0.0000 C.3     1  UNL1       -0.0653
     21 H          11.5957    0.7249    0.0000 H       1  UNL1        0.0265
     22 H          10.7987    0.7249    0.0000 H       1  UNL1        0.0265
     23 H           9.9326   -0.7249    0.0000 H       1  UNL1        0.0265
     24 H          10.7297   -0.7249    0.0000 H       1  UNL1        0.0265
     25 H          11.6647   -0.7249    0.0000 H       1  UNL1        0.0265
     26 H          12.4617   -0.7249    0.0000 H       1  UNL1        0.0265
     27 H           9.8637    0.7249    0.0000 H       1  UNL1        0.0265
     28 H           9.0666    0.7249    0.0000 H       1  UNL1        0.0265
     29 H          13.3278    0.7249    0.0000 H       1  UNL1        0.0265
     30 H          12.5307    0.7249    0.0000 H       1  UNL1        0.0265
     31 H           8.2006   -0.7249    0.0000 H       1  UNL1        0.0265
     32 H           8.9976   -0.7249    0.0000 H       1  UNL1        0.0265
     33 H          13.3967   -0.7249    0.0000 H       1  UNL1        0.0265
     34 H          14.1938   -0.7249    0.0000 H       1  UNL1        0.0265
     35 H           8.1316    0.7249    0.0000 H       1  UNL1        0.0265
     36 H           7.3346    0.7249    0.0000 H       1  UNL1        0.0265
     37 H          15.0598    0.7249    0.0000 H       1  UNL1        0.0265
     38 H          14.2628    0.7249    0.0000 H       1  UNL1        0.0265
     39 H           6.4685   -0.7249    0.0000 H       1  UNL1        0.0265
     40 H           7.2656   -0.7249    0.0000 H       1  UNL1        0.0265
     41 H          15.1288   -0.7249    0.0000 H       1  UNL1        0.0265
     42 H          15.9258   -0.7249    0.0000 H       1  UNL1        0.0265
     43 H           6.3996    0.7249    0.0000 H       1  UNL1        0.0265
     44 H           5.6025    0.7249    0.0000 H       1  UNL1        0.0265
     45 H          16.7919    0.7249    0.0000 H       1  UNL1        0.0265
     46 H          15.9948    0.7249    0.0000 H       1  UNL1        0.0265
     47 H           4.7365   -0.7249    0.0000 H       1  UNL1        0.0266
     48 H           5.5335   -0.7249    0.0000 H       1  UNL1        0.0266
     49 H          16.8608   -0.7249    0.0000 H       1  UNL1        0.0265
     50 H          17.6579   -0.7249    0.0000 H       1  UNL1        0.0265
     51 H           4.6675    0.7249    0.0000 H       1  UNL1        0.0287
     52 H           3.8705    0.7249    0.0000 H       1  UNL1        0.0287
     53 H          18.5239    0.7249    0.0000 H       1  UNL1        0.0263
     54 H          17.7269    0.7249    0.0000 H       1  UNL1        0.0263
     55 H           3.0044   -0.7249    0.0000 H       1  UNL1        0.0557
     56 H           3.8015   -0.7249    0.0000 H       1  UNL1        0.0557
     57 H          18.6814   -0.7869    0.0000 H       1  UNL1        0.0230
     58 H          19.5284   -0.5600    0.0000 H       1  UNL1        0.0230
     59 H          19.3014    0.2869    0.0000 H       1  UNL1        0.0230
     60 H           2.0000   -0.0600    0.0000 H       1  UNL1        0.2094
@<TRIPOS>BOND
     1     1    19    1
     2     1    60    1
     3     2     3    1
     4     2     4    1
     5     2    21    1
     6     2    22    1
     7     3     5    1
     8     3    23    1
     9     3    24    1
    10     4     6    1
    11     4    25    1
    12     4    26    1
    13     5     7    1
    14     5    27    1
    15     5    28    1
    16     6     8    1
    17     6    29    1
    18     6    30    1
    19     7     9    1
    20     7    31    1
    21     7    32    1
    22     8    10    1
    23     8    33    1
    24     8    34    1
    25     9    11    1
    26     9    35    1
    27     9    36    1
    28    10    12    1
    29    10    37    1
    30    10    38    1
    31    11    13    1
    32    11    39    1
    33    11    40    1
    34    12    14    1
    35    12    41    1
    36    12    42    1
    37    13    15    1
    38    13    43    1
    39    13    44    1
    40    14    16    1
    41    14    45    1
    42    14    46    1
    43    15    17    1
    44    15    47    1
    45    15    48    1
    46    16    18    1
    47    16    49    1
    48    16    50    1
    49    17    19    1
    50    17    51    1
    51    17    52    1
    52    18    20    1
    53    18    53    1
    54    18    54    1
    55    19    55    1
    56    19    56    1
    57    20    57    1
    58    20    58    1
    59    20    59    1
