@<TRIPOS>MOLECULE
IMPHY015861
 77 81 0 0 0
SMALL
GASTEIGER

@<TRIPOS>ATOM
      1 O           3.8611    0.0054    0.0000 O.3     1  UNL1       -0.3645
      2 O           3.7320    2.1724    0.0000 O.3     1  UNL1       -0.4585
      3 O           8.1003    1.6693    0.0000 O.2     1  UNL1       -0.2921
      4 O           5.4280    4.9459    0.0000 O.3     1  UNL1       -0.4673
      5 O           3.9381    4.0626    0.0000 O.2     1  UNL1       -0.2499
      6 O           8.0622   -1.3276    0.0000 O.3     1  UNL1       -0.4679
      7 O           6.3301   -1.3276    0.0000 O.2     1  UNL1       -0.2509
      8 O           5.6787   -4.8368    0.0000 O.3     1  UNL1       -0.4281
      9 O           6.8014   -3.4529    0.0000 O.3     1  UNL1       -0.3543
     10 O           2.8660    0.6724    0.0000 O.2     1  UNL1       -0.2512
     11 O           4.1833   -5.8061    0.0000 O.2     1  UNL1       -0.2455
     12 C           5.4641    0.1724    0.0000 C.3     1  UNL1        0.0255
     13 C           6.3301    0.6724    0.0000 C.3     1  UNL1       -0.0065
     14 C           6.3301    1.6724    0.0000 C.3     1  UNL1        0.0419
     15 C           4.5981    0.6724    0.0000 C.3     1  UNL1        0.1059
     16 C           5.4641    2.1724    0.0000 C.3     1  UNL1        0.0303
     17 C           4.5981    1.6724    0.0000 C.3     1  UNL1        0.1348
     18 C           5.2549   -0.7994    0.0000 C.2     1  UNL1       -0.0328
     19 C           4.2662   -0.9024    0.0000 C.3     1  UNL1        0.0819
     20 C           5.4480    3.2140    0.0000 C.3     1  UNL1        0.0905
     21 C           6.3301   -0.3276    0.0000 C.3     1  UNL1       -0.0530
     22 C           7.1962    0.1724    0.0000 C.3     1  UNL1        0.0495
     23 C           4.0624   -1.8694    0.0000 C.3     1  UNL1       -0.0122
     24 C           5.6537   -1.7035    0.0000 C.2     1  UNL1       -0.0630
     25 C           7.1962    1.1724    0.0000 C.3     1  UNL1       -0.0518
     26 C           7.2401    2.1793    0.0000 C.2     1  UNL1        0.1624
     27 C           4.9182   -2.3635    0.0000 C.3     1  UNL1        0.0102
     28 C           6.3461    3.7417    0.0000 C.2     1  UNL1       -0.0639
     29 C           4.4481    3.2024    0.0000 C.3     1  UNL1       -0.0454
     30 C           7.2482    3.2209    0.0000 C.2     1  UNL1       -0.0215
     31 C           4.9381    4.0741    0.0000 C.2     1  UNL1        0.3170
     32 C           6.6313   -1.9140    0.0000 C.3     1  UNL1       -0.0429
     33 C           5.0219   -3.3581    0.0000 C.2     1  UNL1        0.0116
     34 C           7.1962   -0.8276    0.0000 C.2     1  UNL1        0.3071
     35 C           2.8660    1.6724    0.0000 C.2     1  UNL1        0.3043
     36 C           5.8874   -3.8588    0.0000 C.3     1  UNL1        0.2265
     37 C           4.2781   -4.0266    0.0000 C.2     1  UNL1        0.0282
     38 C           2.0000    2.1724    0.0000 C.3     1  UNL1        0.0332
     39 C           4.6841   -4.9405    0.0000 C.2     1  UNL1        0.3345
     40 C           4.9180    5.8061    0.0000 C.3     1  UNL1        0.0817
     41 C           8.0622   -2.3276    0.0000 C.3     1  UNL1        0.0817
     42 H           6.3301    0.0524    0.0000 H       1  UNL1        0.0325
     43 H           3.8211    1.0172    0.0000 H       1  UNL1        0.0642
     44 H           6.1969    2.6031    0.0000 H       1  UNL1        0.0361
     45 H           4.5981    2.2924    0.0000 H       1  UNL1        0.0764
     46 H           3.4210   -0.9924    0.0000 H       1  UNL1        0.0644
     47 H           6.0201   -0.8645    0.0000 H       1  UNL1        0.0239
     48 H           6.8671   -0.6376    0.0000 H       1  UNL1        0.0239
     49 H           6.6401    0.2094    0.0000 H       1  UNL1        0.0239
     50 H           7.8067    0.0648    0.0000 H       1  UNL1        0.0381
     51 H           7.4082    0.7550    0.0000 H       1  UNL1        0.0381
     52 H           3.4725   -1.6785    0.0000 H       1  UNL1        0.0302
     53 H           3.8105   -2.4359    0.0000 H       1  UNL1        0.0302
     54 H           6.8862    0.6355    0.0000 H       1  UNL1        0.0239
     55 H           7.7331    0.8624    0.0000 H       1  UNL1        0.0239
     56 H           7.5062    1.7094    0.0000 H       1  UNL1        0.0239
     57 H           5.4967   -2.5864    0.0000 H       1  UNL1        0.0394
     58 H           6.3437    4.3617    0.0000 H       1  UNL1        0.0584
     59 H           4.4409    3.8223    0.0000 H       1  UNL1        0.0243
     60 H           3.8282    3.1952    0.0000 H       1  UNL1        0.0243
     61 H           4.4553    2.5824    0.0000 H       1  UNL1        0.0243
     62 H           7.7863    3.5288    0.0000 H       1  UNL1        0.0650
     63 H           6.5008   -2.5201    0.0000 H       1  UNL1        0.0275
     64 H           7.2374   -2.0444    0.0000 H       1  UNL1        0.0275
     65 H           6.7618   -1.3079    0.0000 H       1  UNL1        0.0275
     66 H           5.9204   -3.2397    0.0000 H       1  UNL1        0.1108
     67 H           3.6718   -3.8972    0.0000 H       1  UNL1        0.0691
     68 H           2.3100    2.7094    0.0000 H       1  UNL1        0.0342
     69 H           1.4631    2.4824    0.0000 H       1  UNL1        0.0342
     70 H           1.6900    1.6355    0.0000 H       1  UNL1        0.0342
     71 H           5.4514    6.1223    0.0000 H       1  UNL1        0.0661
     72 H           4.6018    6.3394    0.0000 H       1  UNL1        0.0661
     73 H           4.3847    5.4899    0.0000 H       1  UNL1        0.0661
     74 H           7.3026   -3.8178    0.0000 H       1  UNL1        0.2139
     75 H           7.4422   -2.3276    0.0000 H       1  UNL1        0.0661
     76 H           8.0622   -2.9476    0.0000 H       1  UNL1        0.0661
     77 H           8.6822   -2.3276    0.0000 H       1  UNL1        0.0661
@<TRIPOS>BOND
     1     1    15    1
     2     1    19    1
     3    17     2    1
     4     2    35    1
     5     3    26    2
     6     4    31    1
     7     4    40    1
     8     5    31    2
     9     6    34    1
    10     6    41    1
    11     7    34    2
    12     8    36    1
    13     8    39    1
    14     9    36    1
    15     9    74    1
    16    10    35    2
    17    11    39    2
    18    12    13    1
    19    12    15    1
    20    12    18    1
    21    12    21    1
    22    13    14    1
    23    13    22    1
    24    13    42    1
    25    14    16    1
    26    14    25    1
    27    14    26    1
    28    15    17    1
    29    15    43    1
    30    16    17    1
    31    16    20    1
    32    16    44    1
    33    17    45    1
    34    18    19    1
    35    18    24    2
    36    19    23    1
    37    19    46    1
    38    20    28    1
    39    20    29    1
    40    20    31    1
    41    21    47    1
    42    21    48    1
    43    21    49    1
    44    22    34    1
    45    22    50    1
    46    22    51    1
    47    23    27    1
    48    23    52    1
    49    23    53    1
    50    24    27    1
    51    24    32    1
    52    25    54    1
    53    25    55    1
    54    25    56    1
    55    26    30    1
    56    27    33    1
    57    27    57    1
    58    28    30    2
    59    28    58    1
    60    29    59    1
    61    29    60    1
    62    29    61    1
    63    30    62    1
    64    32    63    1
    65    32    64    1
    66    32    65    1
    67    33    36    1
    68    33    37    2
    69    35    38    1
    70    36    66    1
    71    37    39    1
    72    37    67    1
    73    38    68    1
    74    38    69    1
    75    38    70    1
    76    40    71    1
    77    40    72    1
    78    40    73    1
    79    41    75    1
    80    41    76    1
    81    41    77    1
