@<TRIPOS>MOLECULE
IMPHY008722
 21 21 0 0 0
SMALL
GASTEIGER

@<TRIPOS>ATOM
      1 O           4.5981    2.1900    0.0000 O.3     1  UNL1       -0.4806
      2 O           2.8660    2.1900    0.0000 O.2     1  UNL1       -0.2510
      3 C           2.8660    0.1900    0.0000 C.3     1  UNL1       -0.0176
      4 C           2.8660   -0.8100    0.0000 C.ar    1  UNL1       -0.0468
      5 C           3.7320    0.6900    0.0000 C.3     1  UNL1        0.0487
      6 C           2.0000   -1.3100    0.0000 C.ar    1  UNL1       -0.0586
      7 C           3.7320   -1.3100    0.0000 C.ar    1  UNL1       -0.0586
      8 C           2.0000   -2.3100    0.0000 C.ar    1  UNL1       -0.0615
      9 C           3.7320   -2.3100    0.0000 C.ar    1  UNL1       -0.0615
     10 C           3.7320    1.6900    0.0000 C.2     1  UNL1        0.3050
     11 C           2.8660   -2.8100    0.0000 C.ar    1  UNL1       -0.0617
     12 H           2.6540    0.7726    0.0000 H       1  UNL1        0.0318
     13 H           2.2554    0.0823    0.0000 H       1  UNL1        0.0318
     14 H           3.9441    0.1074    0.0000 H       1  UNL1        0.0381
     15 H           4.3426    0.7977    0.0000 H       1  UNL1        0.0381
     16 H           1.4631   -1.0000    0.0000 H       1  UNL1        0.0620
     17 H           4.2690   -1.0000    0.0000 H       1  UNL1        0.0620
     18 H           1.4631   -2.6200    0.0000 H       1  UNL1        0.0618
     19 H           4.2690   -2.6200    0.0000 H       1  UNL1        0.0618
     20 H           2.8660   -3.4300    0.0000 H       1  UNL1        0.0618
     21 H           4.5981    2.8100    0.0000 H       1  UNL1        0.2951
@<TRIPOS>BOND
     1     1    10    1
     2     1    21    1
     3     2    10    2
     4     3     4    1
     5     3     5    1
     6     3    12    1
     7     3    13    1
     8     4     6   ar
     9     4     7   ar
    10     5    10    1
    11     5    14    1
    12     5    15    1
    13     6     8   ar
    14     6    16    1
    15     7     9   ar
    16     7    17    1
    17     8    11   ar
    18     8    18    1
    19     9    11   ar
    20     9    19    1
    21    11    20    1
