@<TRIPOS>MOLECULE
IMPHY005277
 33 35 0 0 0
SMALL
GASTEIGER

@<TRIPOS>ATOM
      1 O           5.0981   -1.2003    0.0000 O.3     1  UNL1       -0.3584
      2 O           6.3580    0.6310    0.0000 O.2     1  UNL1       -0.4217
      3 O           2.8660    0.6657    0.0000 O.3     1  UNL1       -0.4946
      4 O           8.1282    0.6415    0.0000 O.2     1  UNL1       -0.2452
      5 C           4.5981   -0.3343    0.0000 C.3     1  UNL1        0.1212
      6 C           4.0981   -1.2003    0.0000 C.3     1  UNL1        0.1106
      7 C           4.5981    0.6657    0.0000 C.ar    1  UNL1        0.0684
      8 C           3.2320   -1.7003    0.0000 C.2     1  UNL1       -0.0485
      9 C           5.4641    1.1657    0.0000 C.ar    1  UNL1        0.1483
     10 C           3.7320    1.1657    0.0000 C.ar    1  UNL1        0.1294
     11 C           5.4641    2.1657    0.0000 C.ar    1  UNL1        0.0182
     12 C           3.2320   -2.7003    0.0000 C.3     1  UNL1       -0.0415
     13 C           3.7320    2.1657    0.0000 C.ar    1  UNL1       -0.0188
     14 C           2.3660   -1.2003    0.0000 C.2     1  UNL1       -0.0972
     15 C           4.5981    2.6657    0.0000 C.ar    1  UNL1       -0.0476
     16 C           6.3580    2.7003    0.0000 C.ar    1  UNL1       -0.0443
     17 C           7.2641    1.1449    0.0000 C.ar    1  UNL1        0.3372
     18 C           7.2641    2.1865    0.0000 C.ar    1  UNL1        0.0236
     19 C           2.0000    1.1657    0.0000 C.3     1  UNL1        0.0788
     20 H           5.1970   -0.1738    0.0000 H       1  UNL1        0.0678
     21 H           4.2585   -1.7992    0.0000 H       1  UNL1        0.0673
     22 H           2.6120   -2.7003    0.0000 H       1  UNL1        0.0275
     23 H           3.2320   -3.3203    0.0000 H       1  UNL1        0.0275
     24 H           3.8520   -2.7003    0.0000 H       1  UNL1        0.0275
     25 H           3.1951    2.4757    0.0000 H       1  UNL1        0.0654
     26 H           4.5981    3.2857    0.0000 H       1  UNL1        0.0626
     27 H           2.3660   -0.5803    0.0000 H       1  UNL1        0.0535
     28 H           1.8291   -1.5103    0.0000 H       1  UNL1        0.0535
     29 H           6.3509    3.3203    0.0000 H       1  UNL1        0.0627
     30 H           7.7998    2.4986    0.0000 H       1  UNL1        0.0689
     31 H           2.3100    1.7026    0.0000 H       1  UNL1        0.0660
     32 H           1.4631    1.4757    0.0000 H       1  UNL1        0.0660
     33 H           1.6900    0.6287    0.0000 H       1  UNL1        0.0660
@<TRIPOS>BOND
     1     5     1    1
     2     1     6    1
     3     2     9   ar
     4     2    17   ar
     5     3    10    1
     6     3    19    1
     7     4    17    2
     8     5     6    1
     9     5     7    1
    10     5    20    1
    11     6     8    1
    12     6    21    1
    13     7     9   ar
    14     7    10   ar
    15     8    12    1
    16     8    14    2
    17     9    11   ar
    18    10    13   ar
    19    11    15   ar
    20    11    16   ar
    21    12    22    1
    22    12    23    1
    23    12    24    1
    24    13    15   ar
    25    13    25    1
    26    14    27    1
    27    14    28    1
    28    15    26    1
    29    16    18   ar
    30    16    29    1
    31    17    18   ar
    32    18    30    1
    33    19    31    1
    34    19    32    1
    35    19    33    1
