@<TRIPOS>MOLECULE
IMPHY001493
 44 43 0 0 0
SMALL
GASTEIGER

@<TRIPOS>ATOM
      1 O           2.8660    0.7500    0.0000 O.3     1  UNL1       -0.4679
      2 O           3.7320   -0.7500    0.0000 O.2     1  UNL1       -0.2509
      3 C           8.9282    0.2500    0.0000 C.3     1  UNL1       -0.0531
      4 C           9.7942    0.7500    0.0000 C.3     1  UNL1       -0.0531
      5 C           8.0622    0.7500    0.0000 C.3     1  UNL1       -0.0531
      6 C          10.6603    0.2500    0.0000 C.3     1  UNL1       -0.0531
      7 C           7.1962    0.2500    0.0000 C.3     1  UNL1       -0.0530
      8 C          11.5263    0.7500    0.0000 C.3     1  UNL1       -0.0531
      9 C           6.3301    0.7500    0.0000 C.3     1  UNL1       -0.0526
     10 C          12.3923    0.2500    0.0000 C.3     1  UNL1       -0.0533
     11 C           5.4641    0.2500    0.0000 C.3     1  UNL1       -0.0430
     12 C          13.2583    0.7500    0.0000 C.3     1  UNL1       -0.0559
     13 C           4.5981    0.7500    0.0000 C.3     1  UNL1        0.0449
     14 C          14.1244    0.2500    0.0000 C.3     1  UNL1       -0.0653
     15 C           3.7320    0.2500    0.0000 C.2     1  UNL1        0.3068
     16 C           2.0000    0.2500    0.0000 C.3     1  UNL1        0.0817
     17 H           8.5297   -0.2249    0.0000 H       1  UNL1        0.0265
     18 H           9.3267   -0.2249    0.0000 H       1  UNL1        0.0265
     19 H          10.1928    1.2250    0.0000 H       1  UNL1        0.0265
     20 H           9.3957    1.2250    0.0000 H       1  UNL1        0.0265
     21 H           8.4607    1.2250    0.0000 H       1  UNL1        0.0265
     22 H           7.6636    1.2250    0.0000 H       1  UNL1        0.0265
     23 H          10.2617   -0.2249    0.0000 H       1  UNL1        0.0265
     24 H          11.0588   -0.2249    0.0000 H       1  UNL1        0.0265
     25 H           6.7976   -0.2249    0.0000 H       1  UNL1        0.0265
     26 H           7.5947   -0.2249    0.0000 H       1  UNL1        0.0265
     27 H          11.9248    1.2250    0.0000 H       1  UNL1        0.0265
     28 H          11.1278    1.2250    0.0000 H       1  UNL1        0.0265
     29 H           6.7287    1.2250    0.0000 H       1  UNL1        0.0265
     30 H           5.9316    1.2250    0.0000 H       1  UNL1        0.0265
     31 H          11.9938   -0.2249    0.0000 H       1  UNL1        0.0265
     32 H          12.7908   -0.2249    0.0000 H       1  UNL1        0.0265
     33 H           5.0656   -0.2249    0.0000 H       1  UNL1        0.0270
     34 H           5.8626   -0.2249    0.0000 H       1  UNL1        0.0270
     35 H          13.6569    1.2250    0.0000 H       1  UNL1        0.0263
     36 H          12.8598    1.2250    0.0000 H       1  UNL1        0.0263
     37 H           4.9966    1.2250    0.0000 H       1  UNL1        0.0377
     38 H           4.1996    1.2250    0.0000 H       1  UNL1        0.0377
     39 H          13.8144   -0.2869    0.0000 H       1  UNL1        0.0230
     40 H          14.6613   -0.0600    0.0000 H       1  UNL1        0.0230
     41 H          14.4344    0.7869    0.0000 H       1  UNL1        0.0230
     42 H           1.6900    0.7869    0.0000 H       1  UNL1        0.0661
     43 H           1.4631   -0.0600    0.0000 H       1  UNL1        0.0661
     44 H           2.3100   -0.2869    0.0000 H       1  UNL1        0.0661
@<TRIPOS>BOND
     1     1    15    1
     2     1    16    1
     3     2    15    2
     4     3     4    1
     5     3     5    1
     6     3    17    1
     7     3    18    1
     8     4     6    1
     9     4    19    1
    10     4    20    1
    11     5     7    1
    12     5    21    1
    13     5    22    1
    14     6     8    1
    15     6    23    1
    16     6    24    1
    17     7     9    1
    18     7    25    1
    19     7    26    1
    20     8    10    1
    21     8    27    1
    22     8    28    1
    23     9    11    1
    24     9    29    1
    25     9    30    1
    26    10    12    1
    27    10    31    1
    28    10    32    1
    29    11    13    1
    30    11    33    1
    31    11    34    1
    32    12    14    1
    33    12    35    1
    34    12    36    1
    35    13    15    1
    36    13    37    1
    37    13    38    1
    38    14    39    1
    39    14    40    1
    40    14    41    1
    41    16    42    1
    42    16    43    1
    43    16    44    1
