@<TRIPOS>MOLECULE
IMPHY001541
 50 54 0 0 0
SMALL
GASTEIGER

@<TRIPOS>ATOM
      1 O           9.0403    0.6997    0.0000 O.3     1  UNL1       -0.4518
      2 O           9.0403    2.3091    0.0000 O.3     1  UNL1       -0.4489
      3 O           7.2281    3.5044    0.0000 O.3     1  UNL1       -0.4910
      4 O           2.8816    1.0812    0.0000 O.3     1  UNL1       -0.4535
      5 O           3.6992   -0.4458    0.0000 O.2     1  UNL1       -0.2262
      6 O           9.0845   -2.6326    0.0000 O.3     1  UNL1       -0.4914
      7 O           7.2812   -3.6923    0.0000 O.3     1  UNL1       -0.5033
      8 N           4.6127    1.0258    0.0000 N.am    1  UNL1       -0.2597
      9 C           5.4520    0.4975    0.0000 C.3     1  UNL1        0.0593
     10 C           6.3620    1.0044    0.0000 C.ar    1  UNL1       -0.0085
     11 C           5.4440   -0.5441    0.0000 C.3     1  UNL1       -0.0040
     12 C           6.3620    2.0044    0.0000 C.ar    1  UNL1        0.0052
     13 C           7.2281    0.5044    0.0000 C.ar    1  UNL1        0.0334
     14 C           5.5038    2.5013    0.0000 C.3     1  UNL1       -0.0078
     15 C           4.6384    2.0172    0.0000 C.3     1  UNL1        0.0225
     16 C           6.3461   -1.0649    0.0000 C.ar    1  UNL1       -0.0338
     17 C           7.2441   -0.5371    0.0000 C.ar    1  UNL1       -0.0070
     18 C           8.0941    1.0044    0.0000 C.ar    1  UNL1        0.1779
     19 C           7.2281    2.5044    0.0000 C.ar    1  UNL1        0.1689
     20 C           8.0941    2.0044    0.0000 C.ar    1  UNL1        0.2084
     21 C           6.3377   -2.1498    0.0000 C.ar    1  UNL1       -0.0127
     22 C           8.1961   -1.0577    0.0000 C.ar    1  UNL1       -0.0082
     23 C           3.7312    0.5537    0.0000 C.2     1  UNL1        0.4031
     24 C           8.2128   -2.1426    0.0000 C.ar    1  UNL1        0.1619
     25 C           7.2774   -2.6923    0.0000 C.ar    1  UNL1        0.1587
     26 C           9.6239    1.5044    0.0000 C.3     1  UNL1        0.2334
     27 C           8.0941    4.0044    0.0000 C.3     1  UNL1        0.0790
     28 C           2.0000    0.6091    0.0000 C.3     1  UNL1        0.0833
     29 C           9.0961   -3.6325    0.0000 C.3     1  UNL1        0.0790
     30 H           4.7064    0.0895    0.0000 H       1  UNL1        0.0555
     31 H           4.8340   -0.4333    0.0000 H       1  UNL1        0.0335
     32 H           5.2305   -1.1261    0.0000 H       1  UNL1        0.0335
     33 H           5.9049    2.9741    0.0000 H       1  UNL1        0.0330
     34 H           5.1098    2.9800    0.0000 H       1  UNL1        0.0330
     35 H           4.4366    2.6034    0.0000 H       1  UNL1        0.0469
     36 H           4.0256    1.9228    0.0000 H       1  UNL1        0.0469
     37 H           5.7996   -2.4578    0.0000 H       1  UNL1        0.0658
     38 H           8.7269   -0.7375    0.0000 H       1  UNL1        0.0661
     39 H          10.0848    1.0897    0.0000 H       1  UNL1        0.1166
     40 H          10.0848    1.9191    0.0000 H       1  UNL1        0.1166
     41 H           8.4041    3.4674    0.0000 H       1  UNL1        0.0660
     42 H           8.6310    4.3144    0.0000 H       1  UNL1        0.0660
     43 H           7.7841    4.5413    0.0000 H       1  UNL1        0.0660
     44 H           6.7455   -4.0044    0.0000 H       1  UNL1        0.2923
     45 H           1.7073    1.1557    0.0000 H       1  UNL1        0.0661
     46 H           1.4534    0.3164    0.0000 H       1  UNL1        0.0661
     47 H           2.2927    0.0625    0.0000 H       1  UNL1        0.0661
     48 H           8.4762   -3.6397    0.0000 H       1  UNL1        0.0660
     49 H           9.1033   -4.2524    0.0000 H       1  UNL1        0.0660
     50 H           9.7161   -3.6253    0.0000 H       1  UNL1        0.0660
@<TRIPOS>BOND
     1     1    18    1
     2     1    26    1
     3     2    20    1
     4     2    26    1
     5     3    19    1
     6     3    27    1
     7     4    23    1
     8     4    28    1
     9     5    23    2
    10     6    24    1
    11     6    29    1
    12     7    25    1
    13     7    44    1
    14     8     9    1
    15     8    15    1
    16     8    23   am
    17     9    10    1
    18     9    11    1
    19     9    30    1
    20    10    12   ar
    21    10    13   ar
    22    11    16    1
    23    11    31    1
    24    11    32    1
    25    12    14    1
    26    12    19   ar
    27    13    17    1
    28    13    18   ar
    29    14    15    1
    30    14    33    1
    31    14    34    1
    32    15    35    1
    33    15    36    1
    34    16    17   ar
    35    16    21   ar
    36    17    22   ar
    37    18    20   ar
    38    19    20   ar
    39    21    25   ar
    40    21    37    1
    41    22    24   ar
    42    22    38    1
    43    24    25   ar
    44    26    39    1
    45    26    40    1
    46    27    41    1
    47    27    42    1
    48    27    43    1
    49    28    45    1
    50    28    46    1
    51    28    47    1
    52    29    48    1
    53    29    49    1
    54    29    50    1
