@<TRIPOS>MOLECULE
IMPHY011385
 17 16 0 0 0
SMALL
GASTEIGER

@<TRIPOS>ATOM
      1 O           2.0000   -0.0600    0.0000 O.2     1  UNL1       -0.2961
      2 C           5.4641   -0.0600    0.0000 C.3     1  UNL1       -0.0370
      3 C           4.5981    0.4400    0.0000 C.2     1  UNL1       -0.0783
      4 C           3.7320   -0.0600    0.0000 C.2     1  UNL1       -0.0152
      5 C           6.3301    0.4400    0.0000 C.3     1  UNL1       -0.0618
      6 C           3.7320   -1.0600    0.0000 C.3     1  UNL1       -0.0370
      7 C           2.8660    0.4400    0.0000 C.2     1  UNL1        0.1457
      8 H           5.0656   -0.5349    0.0000 H       1  UNL1        0.0305
      9 H           5.8626   -0.5349    0.0000 H       1  UNL1        0.0305
     10 H           4.5981    1.0600    0.0000 H       1  UNL1        0.0576
     11 H           6.6401   -0.0969    0.0000 H       1  UNL1        0.0233
     12 H           6.8671    0.7500    0.0000 H       1  UNL1        0.0233
     13 H           6.0201    0.9769    0.0000 H       1  UNL1        0.0233
     14 H           3.1120   -1.0600    0.0000 H       1  UNL1        0.0278
     15 H           3.7320   -1.6800    0.0000 H       1  UNL1        0.0278
     16 H           4.3520   -1.0600    0.0000 H       1  UNL1        0.0278
     17 H           2.8660    1.0600    0.0000 H       1  UNL1        0.1078
@<TRIPOS>BOND
     1     1     7    2
     2     2     3    1
     3     2     5    1
     4     2     8    1
     5     2     9    1
     6     3     4    2
     7     3    10    1
     8     4     6    1
     9     4     7    1
    10     5    11    1
    11     5    12    1
    12     5    13    1
    13     6    14    1
    14     6    15    1
    15     6    16    1
    16     7    17    1
