@<TRIPOS>MOLECULE
IMPHY014959
 178 188 0 0 0
SMALL
GASTEIGER

@<TRIPOS>ATOM
      1 O          10.2649    6.0666    0.0000 O.3     1  UNL1       -0.3476
      2 O          11.1089    7.6114    0.0000 O.3     1  UNL1       -0.3409
      3 O          13.9049    6.5759    0.0000 O.3     1  UNL1       -0.3883
      4 O          12.0632   -1.3258    0.0000 O.3     1  UNL1       -0.3449
      5 O          10.3312   -1.3259    0.0000 O.3     1  UNL1       -0.3461
      6 O          12.0632   -3.3259    0.0000 O.3     1  UNL1       -0.3378
      7 O          10.3312   -4.3258    0.0000 O.3     1  UNL1       -0.3400
      8 O           8.5991   -3.3259    0.0000 O.3     1  UNL1       -0.3868
      9 O          12.9292   -1.8258    0.0000 O.3     1  UNL1       -0.3431
     10 O           8.5991   -4.3258    0.0000 O.3     1  UNL1       -0.3405
     11 O          13.7953   -4.3258    0.0000 O.3     1  UNL1       -0.3841
     12 O          10.3312   -6.3258    0.0000 O.3     1  UNL1       -0.3378
     13 O          15.5273   -3.3258    0.0000 O.3     1  UNL1       -0.3864
     14 O          15.5273   -1.3258    0.0000 O.3     1  UNL1       -0.3866
     15 O           8.5991   -7.3258    0.0000 O.3     1  UNL1       -0.3864
     16 O           6.8671   -6.3258    0.0000 O.3     1  UNL1       -0.3865
     17 O           6.8671   -3.3259    0.0000 O.3     1  UNL1       -0.3460
     18 O           9.4651   -7.8258    0.0000 O.3     1  UNL1       -0.3461
     19 O          12.0632   -7.3258    0.0000 O.3     1  UNL1       -0.3841
     20 O          12.0632   -9.3259    0.0000 O.3     1  UNL1       -0.3864
     21 O           5.1350   -3.3259    0.0000 O.3     1  UNL1       -0.3405
     22 O          10.3312  -10.3259    0.0000 O.3     1  UNL1       -0.3869
     23 O           6.8671   -1.3259    0.0000 O.3     1  UNL1       -0.3841
     24 O           5.1350   -0.3259    0.0000 O.3     1  UNL1       -0.3864
     25 O           3.4030   -1.3258    0.0000 O.3     1  UNL1       -0.3865
     26 O           2.5369   -2.8259    0.0000 O.3     1  UNL1       -0.3924
     27 C          11.1367    4.5700    0.0000 C.3     1  UNL1        0.0081
     28 C          11.1246    3.5284    0.0000 C.3     1  UNL1       -0.0206
     29 C          12.0008    5.0733    0.0000 C.3     1  UNL1       -0.0223
     30 C          12.0247    3.0041    0.0000 C.3     1  UNL1       -0.0294
     31 C          11.9969    6.0733    0.0000 C.3     1  UNL1        0.0452
     32 C          11.1290    6.5700    0.0000 C.3     1  UNL1        0.1770
     33 C          11.4989    5.5714    0.0000 C.3     1  UNL1        0.0103
     34 C          12.0373    1.9192    0.0000 C.3     1  UNL1       -0.0252
     35 C          10.2687    5.0666    0.0000 C.3     1  UNL1        0.0575
     36 C          12.9127    4.5700    0.0000 C.3     1  UNL1       -0.0488
     37 C          10.1747    3.0041    0.0000 C.3     1  UNL1       -0.0465
     38 C          11.0997    1.3731    0.0000 C.3     1  UNL1       -0.0278
     39 C          12.9248    3.5284    0.0000 C.3     1  UNL1       -0.0489
     40 C          12.9050    6.5836    0.0000 C.3     1  UNL1        0.0739
     41 C          10.1622    1.9192    0.0000 C.3     1  UNL1       -0.0486
     42 C          10.2606    4.0317    0.0000 C.3     1  UNL1       -0.0587
     43 C          11.0866    0.2430    0.0000 C.3     1  UNL1       -0.0052
     44 C          13.0267    1.3731    0.0000 C.3     1  UNL1       -0.0447
     45 C          12.9013    2.4225    0.0000 C.3     1  UNL1       -0.0590
     46 C          12.9090    7.6253    0.0000 C.3     1  UNL1        0.0063
     47 C          12.0632   -0.3259    0.0000 C.3     1  UNL1        0.0672
     48 C          13.0398    0.2430    0.0000 C.3     1  UNL1       -0.0255
     49 C          12.0049    8.1426    0.0000 C.3     1  UNL1        0.0829
     50 C          13.3983    5.7138    0.0000 C.3     1  UNL1       -0.0355
     51 C          10.0867    0.2507    0.0000 C.3     1  UNL1       -0.0572
     52 C          10.5800   -0.6192    0.0000 C.3     1  UNL1       -0.0572
     53 C          11.9972    9.1426    0.0000 C.2     1  UNL1       -0.0567
     54 C          11.1972   -1.8258    0.0000 C.3     1  UNL1        0.1882
     55 C          11.1273    9.6359    0.0000 C.2     1  UNL1       -0.0772
     56 C          11.1972   -2.8259    0.0000 C.3     1  UNL1        0.1410
     57 C          11.1196   10.6359    0.0000 C.3     1  UNL1       -0.0440
     58 C          10.2652    9.1292    0.0000 C.3     1  UNL1       -0.0440
     59 C          10.3312   -3.3259    0.0000 C.3     1  UNL1        0.1206
     60 C           9.4651   -1.8259    0.0000 C.3     1  UNL1        0.0792
     61 C           9.4651   -2.8259    0.0000 C.3     1  UNL1        0.1073
     62 C          12.9292   -2.8259    0.0000 C.3     1  UNL1        0.1884
     63 C           9.4651   -4.8258    0.0000 C.3     1  UNL1        0.1888
     64 C          13.7953   -3.3259    0.0000 C.3     1  UNL1        0.1341
     65 C           9.4651   -5.8258    0.0000 C.3     1  UNL1        0.1406
     66 C          14.6613   -2.8259    0.0000 C.3     1  UNL1        0.1140
     67 C          13.7953   -1.3258    0.0000 C.3     1  UNL1        0.0873
     68 C          14.6613   -1.8258    0.0000 C.3     1  UNL1        0.1095
     69 C           8.5991   -6.3258    0.0000 C.3     1  UNL1        0.1144
     70 C           7.7331   -4.8258    0.0000 C.3     1  UNL1        0.1134
     71 C           7.7331   -5.8258    0.0000 C.3     1  UNL1        0.1119
     72 C          13.7953   -0.3259    0.0000 C.3     1  UNL1       -0.0361
     73 C           6.8671   -4.3258    0.0000 C.3     1  UNL1        0.0796
     74 C          10.3312   -7.3258    0.0000 C.3     1  UNL1        0.1881
     75 C          11.1972   -7.8258    0.0000 C.3     1  UNL1        0.1341
     76 C          11.1972   -8.8259    0.0000 C.3     1  UNL1        0.1137
     77 C           9.4651   -8.8259    0.0000 C.3     1  UNL1        0.0792
     78 C           6.0010   -2.8259    0.0000 C.3     1  UNL1        0.1880
     79 C          10.3312   -9.3259    0.0000 C.3     1  UNL1        0.1069
     80 C           6.0010   -1.8258    0.0000 C.3     1  UNL1        0.1341
     81 C           5.1350   -1.3258    0.0000 C.3     1  UNL1        0.1141
     82 C           4.2690   -2.8259    0.0000 C.3     1  UNL1        0.1130
     83 C           4.2690   -1.8258    0.0000 C.3     1  UNL1        0.1119
     84 C           3.4030   -3.3259    0.0000 C.3     1  UNL1        0.0730
     85 H          12.8373    5.2241    0.0000 H       1  UNL1        0.0312
     86 H          12.7641    2.5848    0.0000 H       1  UNL1        0.0312
     87 H          12.8346    5.9289    0.0000 H       1  UNL1        0.0384
     88 H          11.9974    5.2028    0.0000 H       1  UNL1        0.0323
     89 H          11.9945    5.9438    0.0000 H       1  UNL1        0.0323
     90 H           9.6578    5.1719    0.0000 H       1  UNL1        0.0567
     91 H          10.0589    4.4832    0.0000 H       1  UNL1        0.0567
     92 H          13.5248    4.4710    0.0000 H       1  UNL1        0.0268
     93 H          13.1150    5.1560    0.0000 H       1  UNL1        0.0268
     94 H           9.9724    3.5902    0.0000 H       1  UNL1        0.0271
     95 H           9.5627    2.9051    0.0000 H       1  UNL1        0.0271
     96 H          10.3603    0.9538    0.0000 H       1  UNL1        0.0312
     97 H          13.1406    2.9472    0.0000 H       1  UNL1        0.0268
     98 H          13.5344    3.6416    0.0000 H       1  UNL1        0.0268
     99 H           9.5526    2.0324    0.0000 H       1  UNL1        0.0268
    100 H           9.9464    1.3380    0.0000 H       1  UNL1        0.0268
    101 H          10.5726    4.5675    0.0000 H       1  UNL1        0.0235
    102 H           9.7248    4.3438    0.0000 H       1  UNL1        0.0235
    103 H           9.9485    3.4960    0.0000 H       1  UNL1        0.0235
    104 H          13.6388    1.2741    0.0000 H       1  UNL1        0.0271
    105 H          13.2290    1.9592    0.0000 H       1  UNL1        0.0271
    106 H          13.2134    1.8868    0.0000 H       1  UNL1        0.0235
    107 H          13.4371    2.7346    0.0000 H       1  UNL1        0.0235
    108 H          12.5893    2.9583    0.0000 H       1  UNL1        0.0235
    109 H          13.5194    7.5168    0.0000 H       1  UNL1        0.0321
    110 H          13.1203    8.2082    0.0000 H       1  UNL1        0.0321
    111 H          12.6007   -0.6348    0.0000 H       1  UNL1        0.0602
    112 H          13.2556   -0.3382    0.0000 H       1  UNL1        0.0290
    113 H          13.6494    0.3561    0.0000 H       1  UNL1        0.0290
    114 H          11.4650    8.4474    0.0000 H       1  UNL1        0.0642
    115 H          12.8590    5.4079    0.0000 H       1  UNL1        0.0257
    116 H          13.7041    5.1745    0.0000 H       1  UNL1        0.0257
    117 H          13.9376    6.0197    0.0000 H       1  UNL1        0.0257
    118 H          10.0915    0.8707    0.0000 H       1  UNL1        0.0236
    119 H           9.4667    0.2555    0.0000 H       1  UNL1        0.0236
    120 H          10.0819   -0.3693    0.0000 H       1  UNL1        0.0236
    121 H          10.0455   -0.3050    0.0000 H       1  UNL1        0.0236
    122 H          10.2659   -1.1537    0.0000 H       1  UNL1        0.0236
    123 H          11.1145   -0.9333    0.0000 H       1  UNL1        0.0236
    124 H          14.2191    7.1105    0.0000 H       1  UNL1        0.2102
    125 H          12.5317    9.4567    0.0000 H       1  UNL1        0.0597
    126 H          11.7341   -2.1358    0.0000 H       1  UNL1        0.0937
    127 H          11.1972   -3.4458    0.0000 H       1  UNL1        0.0675
    128 H          11.7396   10.6406    0.0000 H       1  UNL1        0.0274
    129 H          11.1149   11.2558    0.0000 H       1  UNL1        0.0274
    130 H          10.4996   10.6311    0.0000 H       1  UNL1        0.0274
    131 H           9.9511    9.6638    0.0000 H       1  UNL1        0.0274
    132 H           9.7307    8.8151    0.0000 H       1  UNL1        0.0274
    133 H          10.5793    8.5947    0.0000 H       1  UNL1        0.0274
    134 H           9.7942   -3.6358    0.0000 H       1  UNL1        0.0651
    135 H           9.2531   -1.2432    0.0000 H       1  UNL1        0.0587
    136 H           8.8546   -1.9335    0.0000 H       1  UNL1        0.0587
    137 H           8.9282   -2.5158    0.0000 H       1  UNL1        0.0643
    138 H          12.3923   -2.5159    0.0000 H       1  UNL1        0.0938
    139 H           8.0622   -3.0159    0.0000 H       1  UNL1        0.2100
    140 H          10.0021   -5.1358    0.0000 H       1  UNL1        0.0938
    141 H          14.3322   -3.6358    0.0000 H       1  UNL1        0.0671
    142 H           9.4651   -6.4458    0.0000 H       1  UNL1        0.0675
    143 H          15.1982   -2.5158    0.0000 H       1  UNL1        0.0648
    144 H          13.2583   -1.0158    0.0000 H       1  UNL1        0.0621
    145 H          14.6613   -1.2058    0.0000 H       1  UNL1        0.0646
    146 H           9.1360   -6.6358    0.0000 H       1  UNL1        0.0648
    147 H          14.3322   -4.6358    0.0000 H       1  UNL1        0.2101
    148 H           7.7331   -4.2058    0.0000 H       1  UNL1        0.0647
    149 H           7.7331   -6.4458    0.0000 H       1  UNL1        0.0647
    150 H          14.4153   -0.3259    0.0000 H       1  UNL1        0.0255
    151 H          13.7953    0.2941    0.0000 H       1  UNL1        0.0255
    152 H          13.1753   -0.3259    0.0000 H       1  UNL1        0.0255
    153 H          16.0643   -3.0158    0.0000 H       1  UNL1        0.2100
    154 H          15.5273   -0.7059    0.0000 H       1  UNL1        0.2100
    155 H           6.2565   -4.2182    0.0000 H       1  UNL1        0.0587
    156 H           6.6550   -4.9085    0.0000 H       1  UNL1        0.0587
    157 H           8.0622   -7.6359    0.0000 H       1  UNL1        0.2100
    158 H           9.7942   -7.0158    0.0000 H       1  UNL1        0.0937
    159 H           6.3301   -6.0158    0.0000 H       1  UNL1        0.2100
    160 H          11.7341   -8.1358    0.0000 H       1  UNL1        0.0671
    161 H          11.1972   -9.4459    0.0000 H       1  UNL1        0.0647
    162 H           8.8546   -8.7182    0.0000 H       1  UNL1        0.0587
    163 H           9.2531   -9.4085    0.0000 H       1  UNL1        0.0587
    164 H           6.5380   -2.5159    0.0000 H       1  UNL1        0.0937
    165 H           9.7942   -9.6358    0.0000 H       1  UNL1        0.0643
    166 H          12.6002   -7.6359    0.0000 H       1  UNL1        0.2101
    167 H           6.0010   -1.2058    0.0000 H       1  UNL1        0.0671
    168 H          12.0632   -9.9459    0.0000 H       1  UNL1        0.2100
    169 H           4.5981   -1.0158    0.0000 H       1  UNL1        0.0648
    170 H           9.7942  -10.6359    0.0000 H       1  UNL1        0.2100
    171 H           4.2690   -3.4458    0.0000 H       1  UNL1        0.0647
    172 H           4.2690   -1.2058    0.0000 H       1  UNL1        0.0647
    173 H           6.8671   -0.7059    0.0000 H       1  UNL1        0.2101
    174 H           3.0044   -3.8008    0.0000 H       1  UNL1        0.0584
    175 H           3.8015   -3.8008    0.0000 H       1  UNL1        0.0584
    176 H           4.5981   -0.0159    0.0000 H       1  UNL1        0.2100
    177 H           2.8660   -1.6358    0.0000 H       1  UNL1        0.2100
    178 H           2.0000   -3.1358    0.0000 H       1  UNL1        0.2095
@<TRIPOS>BOND
     1     1    32    1
     2     1    35    1
     3    32     2    1
     4     2    49    1
     5    40     3    1
     6     3   124    1
     7    47     4    1
     8    54     4    1
     9     5    54    1
    10     5    60    1
    11    56     6    1
    12    62     6    1
    13    59     7    1
    14    63     7    1
    15    61     8    1
    16     8   139    1
    17     9    62    1
    18     9    67    1
    19    10    63    1
    20    10    70    1
    21    64    11    1
    22    11   147    1
    23    65    12    1
    24    74    12    1
    25    66    13    1
    26    13   153    1
    27    68    14    1
    28    14   154    1
    29    69    15    1
    30    15   157    1
    31    71    16    1
    32    16   159    1
    33    17    73    1
    34    78    17    1
    35    18    74    1
    36    18    77    1
    37    75    19    1
    38    19   166    1
    39    76    20    1
    40    20   168    1
    41    21    78    1
    42    21    82    1
    43    79    22    1
    44    22   170    1
    45    80    23    1
    46    23   173    1
    47    81    24    1
    48    24   176    1
    49    83    25    1
    50    25   177    1
    51    26    84    1
    52    26   178    1
    53    27    28    1
    54    27    29    1
    55    27    33    1
    56    27    35    1
    57    28    30    1
    58    28    37    1
    59    28    42    1
    60    29    31    1
    61    29    36    1
    62    29    85    1
    63    30    34    1
    64    30    39    1
    65    30    86    1
    66    31    32    1
    67    31    40    1
    68    31    87    1
    69    32    33    1
    70    33    88    1
    71    33    89    1
    72    34    38    1
    73    34    44    1
    74    34    45    1
    75    35    90    1
    76    35    91    1
    77    36    39    1
    78    36    92    1
    79    36    93    1
    80    37    41    1
    81    37    94    1
    82    37    95    1
    83    38    41    1
    84    38    43    1
    85    38    96    1
    86    39    97    1
    87    39    98    1
    88    40    46    1
    89    40    50    1
    90    41    99    1
    91    41   100    1
    92    42   101    1
    93    42   102    1
    94    42   103    1
    95    43    47    1
    96    43    51    1
    97    43    52    1
    98    44    48    1
    99    44   104    1
   100    44   105    1
   101    45   106    1
   102    45   107    1
   103    45   108    1
   104    46    49    1
   105    46   109    1
   106    46   110    1
   107    47    48    1
   108    47   111    1
   109    48   112    1
   110    48   113    1
   111    49    53    1
   112    49   114    1
   113    50   115    1
   114    50   116    1
   115    50   117    1
   116    51   118    1
   117    51   119    1
   118    51   120    1
   119    52   121    1
   120    52   122    1
   121    52   123    1
   122    53    55    2
   123    53   125    1
   124    54    56    1
   125    54   126    1
   126    55    57    1
   127    55    58    1
   128    56    59    1
   129    56   127    1
   130    57   128    1
   131    57   129    1
   132    57   130    1
   133    58   131    1
   134    58   132    1
   135    58   133    1
   136    59    61    1
   137    59   134    1
   138    60    61    1
   139    60   135    1
   140    60   136    1
   141    61   137    1
   142    62    64    1
   143    62   138    1
   144    63    65    1
   145    63   140    1
   146    64    66    1
   147    64   141    1
   148    65    69    1
   149    65   142    1
   150    66    68    1
   151    66   143    1
   152    67    68    1
   153    67    72    1
   154    67   144    1
   155    68   145    1
   156    69    71    1
   157    69   146    1
   158    70    71    1
   159    70    73    1
   160    70   148    1
   161    71   149    1
   162    72   150    1
   163    72   151    1
   164    72   152    1
   165    73   155    1
   166    73   156    1
   167    74    75    1
   168    74   158    1
   169    75    76    1
   170    75   160    1
   171    76    79    1
   172    76   161    1
   173    77    79    1
   174    77   162    1
   175    77   163    1
   176    78    80    1
   177    78   164    1
   178    79   165    1
   179    80    81    1
   180    80   167    1
   181    81    83    1
   182    81   169    1
   183    82    83    1
   184    82    84    1
   185    82   171    1
   186    83   172    1
   187    84   174    1
   188    84   175    1
