@<TRIPOS>MOLECULE
IMPHY000959
 45 45 0 0 0
SMALL
GASTEIGER

@<TRIPOS>ATOM
      1 O           4.2690   -1.0950    0.0000 O.3     1  UNL1       -0.3405
      2 O           6.0010   -1.0950    0.0000 O.3     1  UNL1       -0.3461
      3 O           4.2690   -4.0950    0.0000 O.3     1  UNL1       -0.3864
      4 O           2.5369   -3.0950    0.0000 O.3     1  UNL1       -0.3865
      5 O           6.0010   -3.0950    0.0000 O.3     1  UNL1       -0.3841
      6 O           2.5369   -0.0950    0.0000 O.3     1  UNL1       -0.3924
      7 O           7.7331   -0.0950    0.0000 O.3     1  UNL1       -0.3869
      8 O           6.0010    1.9050    0.0000 O.3     1  UNL1       -0.3865
      9 O           8.5991    1.4050    0.0000 O.3     1  UNL1       -0.3861
     10 O           6.8671    3.4050    0.0000 O.3     1  UNL1       -0.3819
     11 O           8.5991    4.4050    0.0000 O.2     1  UNL1       -0.2982
     12 C           4.2690   -3.0950    0.0000 C.3     1  UNL1        0.1141
     13 C           3.4030   -2.5950    0.0000 C.3     1  UNL1        0.1119
     14 C           5.1350   -2.5950    0.0000 C.3     1  UNL1        0.1341
     15 C           3.4030   -1.5950    0.0000 C.3     1  UNL1        0.1130
     16 C           5.1350   -1.5950    0.0000 C.3     1  UNL1        0.1880
     17 C           2.5369   -1.0950    0.0000 C.3     1  UNL1        0.0730
     18 C           6.8671    0.4050    0.0000 C.3     1  UNL1        0.1069
     19 C           6.0010   -0.0950    0.0000 C.3     1  UNL1        0.0792
     20 C           6.8671    1.4050    0.0000 C.3     1  UNL1        0.1118
     21 C           7.7331    1.9050    0.0000 C.3     1  UNL1        0.1159
     22 C           7.7331    2.9050    0.0000 C.3     1  UNL1        0.1381
     23 C           8.5991    3.4050    0.0000 C.2     1  UNL1        0.1512
     24 H           4.8059   -3.4050    0.0000 H       1  UNL1        0.0648
     25 H           3.4030   -3.2150    0.0000 H       1  UNL1        0.0647
     26 H           5.6720   -2.2850    0.0000 H       1  UNL1        0.0671
     27 H           3.4030   -0.9750    0.0000 H       1  UNL1        0.0647
     28 H           5.1350   -0.9750    0.0000 H       1  UNL1        0.0937
     29 H           1.9264   -0.9873    0.0000 H       1  UNL1        0.0584
     30 H           2.3249   -1.6776    0.0000 H       1  UNL1        0.0584
     31 H           6.8671   -0.2150    0.0000 H       1  UNL1        0.0643
     32 H           5.7890    0.4876    0.0000 H       1  UNL1        0.0587
     33 H           5.3905   -0.2027    0.0000 H       1  UNL1        0.0587
     34 H           6.3301    1.0950    0.0000 H       1  UNL1        0.0647
     35 H           8.2700    2.2150    0.0000 H       1  UNL1        0.0650
     36 H           3.7320   -4.4050    0.0000 H       1  UNL1        0.2100
     37 H           2.0000   -2.7850    0.0000 H       1  UNL1        0.2100
     38 H           6.5380   -2.7850    0.0000 H       1  UNL1        0.2101
     39 H           7.1962    2.5950    0.0000 H       1  UNL1        0.0697
     40 H           2.0000    0.2150    0.0000 H       1  UNL1        0.2095
     41 H           8.2700    0.2150    0.0000 H       1  UNL1        0.2100
     42 H           6.0010    2.5250    0.0000 H       1  UNL1        0.2100
     43 H           9.1360    1.7150    0.0000 H       1  UNL1        0.2100
     44 H           9.1360    3.0950    0.0000 H       1  UNL1        0.1055
     45 H           6.8671    4.0250    0.0000 H       1  UNL1        0.2105
@<TRIPOS>BOND
     1     1    15    1
     2     1    16    1
     3    16     2    1
     4     2    19    1
     5    12     3    1
     6     3    36    1
     7    13     4    1
     8     4    37    1
     9    14     5    1
    10     5    38    1
    11     6    17    1
    12     6    40    1
    13    18     7    1
    14     7    41    1
    15    20     8    1
    16     8    42    1
    17    21     9    1
    18     9    43    1
    19    22    10    1
    20    10    45    1
    21    11    23    2
    22    12    13    1
    23    12    14    1
    24    12    24    1
    25    13    15    1
    26    13    25    1
    27    14    16    1
    28    14    26    1
    29    15    17    1
    30    15    27    1
    31    16    28    1
    32    17    29    1
    33    17    30    1
    34    18    19    1
    35    18    20    1
    36    18    31    1
    37    19    32    1
    38    19    33    1
    39    20    21    1
    40    20    34    1
    41    21    22    1
    42    21    35    1
    43    22    23    1
    44    22    39    1
    45    23    44    1
