@<TRIPOS>MOLECULE
IMPHY000116
 161 169 0 0 0
SMALL
GASTEIGER

@<TRIPOS>ATOM
      1 O           6.8671   -5.0496    0.0000 O.3     1  UNL1       -0.3418
      2 O           5.0597   -3.9968    0.0000 O.3     1  UNL1       -0.3892
      3 O           8.6209    4.2298    0.0000 O.3     1  UNL1       -0.4318
      4 O           9.3112   -4.3579    0.0000 O.3     1  UNL1       -0.4802
      5 O           7.8180   -5.2355    0.0000 O.2     1  UNL1       -0.2503
      6 O           9.5042    2.7400    0.0000 O.2     1  UNL1       -0.2501
      7 O           5.1350   -5.0496    0.0000 O.3     1  UNL1       -0.3405
      8 O           9.4695    5.7398    0.0000 O.3     1  UNL1       -0.3312
      9 O           6.8671   -7.0496    0.0000 O.3     1  UNL1       -0.3841
     10 O           5.1350   -8.0496    0.0000 O.3     1  UNL1       -0.3864
     11 O          10.3644    3.2499    0.0000 O.3     1  UNL1       -0.3366
     12 O           3.4030   -7.0496    0.0000 O.3     1  UNL1       -0.3865
     13 O          12.0847    4.2699    0.0000 O.3     1  UNL1       -0.3863
     14 O           2.5369   -5.5496    0.0000 O.3     1  UNL1       -0.3924
     15 O          12.0616    6.2698    0.0000 O.3     1  UNL1       -0.3865
     16 O          12.0963    3.2700    0.0000 O.3     1  UNL1       -0.3431
     17 O           9.4464    7.7396    0.0000 O.3     1  UNL1       -0.3924
     18 O          10.3875    1.2501    0.0000 O.3     1  UNL1       -0.3841
     19 O          12.1310    0.2702    0.0000 O.3     1  UNL1       -0.3864
     20 O          13.8514    1.2901    0.0000 O.3     1  UNL1       -0.3402
     21 O          13.0027   -0.2198    0.0000 O.3     1  UNL1       -0.3461
     22 O          15.5949    0.3102    0.0000 O.3     1  UNL1       -0.3841
     23 O          15.6180   -1.6896    0.0000 O.3     1  UNL1       -0.3864
     24 O          13.8976   -2.7096    0.0000 O.3     1  UNL1       -0.3869
     25 C           7.7681   -0.3494    0.0000 C.3     1  UNL1       -0.0194
     26 C           6.9040   -0.8527    0.0000 C.3     1  UNL1       -0.0256
     27 C           6.8920   -1.8943    0.0000 C.3     1  UNL1       -0.0221
     28 C           7.7643    0.6506    0.0000 C.3     1  UNL1       -0.0051
     29 C           7.7920   -2.4186    0.0000 C.3     1  UNL1       -0.0172
     30 C           8.6801   -0.8527    0.0000 C.3     1  UNL1       -0.0463
     31 C           6.8963    1.1473    0.0000 C.2     1  UNL1       -0.0629
     32 C           8.6921   -1.8943    0.0000 C.3     1  UNL1       -0.0481
     33 C           7.8046   -3.5035    0.0000 C.3     1  UNL1        0.0966
     34 C           6.8762    2.1887    0.0000 C.3     1  UNL1       -0.0031
     35 C           6.0361   -0.3560    0.0000 C.3     1  UNL1       -0.0306
     36 C           5.9421   -2.4186    0.0000 C.3     1  UNL1       -0.0184
     37 C           8.6723    1.1610    0.0000 C.3     1  UNL1       -0.0424
     38 C           7.7722    2.7199    0.0000 C.3     1  UNL1        0.0744
     39 C           8.7522   -0.1719    0.0000 C.3     1  UNL1       -0.0585
     40 C           8.6763    2.2026    0.0000 C.3     1  UNL1       -0.0359
     41 C           6.8671   -4.0496    0.0000 C.3     1  UNL1        0.1033
     42 C           6.0322    0.6440    0.0000 C.2     1  UNL1       -0.0836
     43 C           5.9295   -3.5035    0.0000 C.3     1  UNL1        0.0830
     44 C           6.0279   -1.3909    0.0000 C.3     1  UNL1       -0.0589
     45 C           8.7497    0.4808    0.0000 C.3     1  UNL1       -0.0553
     46 C           5.9223    2.7057    0.0000 C.3     1  UNL1       -0.0403
     47 C           7.7764    3.8049    0.0000 C.3     1  UNL1       -0.0362
     48 C           5.9014    3.7905    0.0000 C.3     1  UNL1       -0.0343
     49 C           6.8347    4.3438    0.0000 C.3     1  UNL1       -0.0468
     50 C           8.8046   -3.4958    0.0000 C.3     1  UNL1       -0.0466
     51 C           8.3113   -4.3656    0.0000 C.2     1  UNL1        0.3136
     52 C           8.6324    3.2299    0.0000 C.2     1  UNL1        0.3161
     53 C           5.3881    4.6487    0.0000 C.3     1  UNL1       -0.0598
     54 C           4.9015    3.7750    0.0000 C.3     1  UNL1       -0.0598
     55 C           6.0010   -5.5496    0.0000 C.3     1  UNL1        0.1884
     56 C           6.0010   -6.5496    0.0000 C.3     1  UNL1        0.1341
     57 C           9.4810    4.7398    0.0000 C.3     1  UNL1        0.2341
     58 C           5.1350   -7.0496    0.0000 C.3     1  UNL1        0.1141
     59 C           4.2690   -5.5496    0.0000 C.3     1  UNL1        0.1130
     60 C          10.3528    4.2499    0.0000 C.3     1  UNL1        0.1520
     61 C           4.2690   -6.5496    0.0000 C.3     1  UNL1        0.1119
     62 C          11.2130    4.7599    0.0000 C.3     1  UNL1        0.1155
     63 C          10.3297    6.2497    0.0000 C.3     1  UNL1        0.1140
     64 C           3.4030   -5.0496    0.0000 C.3     1  UNL1        0.0730
     65 C          11.2014    5.7598    0.0000 C.3     1  UNL1        0.1120
     66 C          10.3181    7.2497    0.0000 C.3     1  UNL1        0.0731
     67 C          11.2361    2.7600    0.0000 C.3     1  UNL1        0.1885
     68 C          11.2477    1.7601    0.0000 C.3     1  UNL1        0.1341
     69 C          12.1194    1.2701    0.0000 C.3     1  UNL1        0.1143
     70 C          12.9681    2.7800    0.0000 C.3     1  UNL1        0.0877
     71 C          12.9796    1.7801    0.0000 C.3     1  UNL1        0.1160
     72 C          13.8282    3.2900    0.0000 C.3     1  UNL1       -0.0361
     73 C          13.8629    0.2902    0.0000 C.3     1  UNL1        0.1880
     74 C          14.7347   -0.1998    0.0000 C.3     1  UNL1        0.1341
     75 C          14.7462   -1.1997    0.0000 C.3     1  UNL1        0.1137
     76 C          13.0143   -1.2197    0.0000 C.3     1  UNL1        0.0792
     77 C          13.8861   -1.7097    0.0000 C.3     1  UNL1        0.1069
     78 H           7.6385   -1.2805    0.0000 H       1  UNL1        0.0315
     79 H           8.5314   -2.8379    0.0000 H       1  UNL1        0.0317
     80 H           9.2921   -0.9517    0.0000 H       1  UNL1        0.0271
     81 H           8.8824   -0.2666    0.0000 H       1  UNL1        0.0271
     82 H           8.9079   -2.4755    0.0000 H       1  UNL1        0.0269
     83 H           9.3017   -1.7811    0.0000 H       1  UNL1        0.0269
     84 H           6.1502    1.7468    0.0000 H       1  UNL1        0.0357
     85 H           5.4251   -0.2507    0.0000 H       1  UNL1        0.0310
     86 H           5.8263   -0.9395    0.0000 H       1  UNL1        0.0310
     87 H           5.7398   -1.8325    0.0000 H       1  UNL1        0.0296
     88 H           5.3300   -2.5176    0.0000 H       1  UNL1        0.0296
     89 H           8.8791    0.5765    0.0000 H       1  UNL1        0.0274
     90 H           9.2836    1.2647    0.0000 H       1  UNL1        0.0274
     91 H           8.8623   -0.7821    0.0000 H       1  UNL1        0.0235
     92 H           9.3624   -0.0619    0.0000 H       1  UNL1        0.0235
     93 H           8.6422    0.4382    0.0000 H       1  UNL1        0.0235
     94 H           9.2868    2.0942    0.0000 H       1  UNL1        0.0276
     95 H           8.8876    2.7855    0.0000 H       1  UNL1        0.0276
     96 H           7.4046   -4.3586    0.0000 H       1  UNL1        0.0634
     97 H           5.4941    0.9519    0.0000 H       1  UNL1        0.0572
     98 H           5.9259   -4.1235    0.0000 H       1  UNL1        0.0619
     99 H           6.3400   -0.8552    0.0000 H       1  UNL1        0.0235
    100 H           5.4922   -1.0789    0.0000 H       1  UNL1        0.0235
    101 H           5.7158   -1.9267    0.0000 H       1  UNL1        0.0235
    102 H           8.6444   -0.1302    0.0000 H       1  UNL1        0.0238
    103 H           9.3607    0.3755    0.0000 H       1  UNL1        0.0238
    104 H           8.8550    1.0918    0.0000 H       1  UNL1        0.0238
    105 H           5.3095    2.8000    0.0000 H       1  UNL1        0.0276
    106 H           5.7246    2.1181    0.0000 H       1  UNL1        0.0276
    107 H           8.3869    3.6965    0.0000 H       1  UNL1        0.0276
    108 H           7.9877    4.3878    0.0000 H       1  UNL1        0.0276
    109 H           7.2302    4.8213    0.0000 H       1  UNL1        0.0271
    110 H           6.4319    4.8151    0.0000 H       1  UNL1        0.0271
    111 H           8.8094   -4.1157    0.0000 H       1  UNL1        0.0241
    112 H           9.4246   -3.4910    0.0000 H       1  UNL1        0.0241
    113 H           8.7998   -2.8758    0.0000 H       1  UNL1        0.0241
    114 H           4.8920    4.3950    0.0000 H       1  UNL1        0.0235
    115 H           4.2816    3.7655    0.0000 H       1  UNL1        0.0235
    116 H           5.9202    4.9669    0.0000 H       1  UNL1        0.0235
    117 H           5.0699    5.1808    0.0000 H       1  UNL1        0.0235
    118 H           4.8560    4.3304    0.0000 H       1  UNL1        0.0235
    119 H           4.9111    3.1551    0.0000 H       1  UNL1        0.0235
    120 H           4.5251   -3.6826    0.0000 H       1  UNL1        0.2099
    121 H           6.0010   -4.9296    0.0000 H       1  UNL1        0.0938
    122 H           9.6254   -4.8924    0.0000 H       1  UNL1        0.2951
    123 H           6.0010   -7.1696    0.0000 H       1  UNL1        0.0671
    124 H           9.4882    4.1199    0.0000 H       1  UNL1        0.1085
    125 H           4.5981   -7.3596    0.0000 H       1  UNL1        0.0648
    126 H           4.2690   -4.9296    0.0000 H       1  UNL1        0.0647
    127 H          10.8933    3.9461    0.0000 H       1  UNL1        0.0687
    128 H           3.7320   -6.2396    0.0000 H       1  UNL1        0.0647
    129 H           6.8671   -7.6696    0.0000 H       1  UNL1        0.2101
    130 H          11.7463    5.0761    0.0000 H       1  UNL1        0.0648
    131 H           9.7892    6.5535    0.0000 H       1  UNL1        0.0647
    132 H           3.8015   -4.5746    0.0000 H       1  UNL1        0.0584
    133 H           3.0044   -4.5746    0.0000 H       1  UNL1        0.0584
    134 H          11.1943    6.3797    0.0000 H       1  UNL1        0.0647
    135 H           4.5981   -8.3596    0.0000 H       1  UNL1        0.2100
    136 H           3.4030   -7.6696    0.0000 H       1  UNL1        0.2100
    137 H          10.9299    7.1491    0.0000 H       1  UNL1        0.0584
    138 H          10.5234    7.8347    0.0000 H       1  UNL1        0.0584
    139 H          10.7028    2.4438    0.0000 H       1  UNL1        0.0938
    140 H          12.6181    4.5861    0.0000 H       1  UNL1        0.2100
    141 H           2.0000   -5.2396    0.0000 H       1  UNL1        0.2095
    142 H          12.0544    6.8897    0.0000 H       1  UNL1        0.2100
    143 H          12.1977    1.4563    0.0000 H       1  UNL1        0.0671
    144 H           9.4392    8.3596    0.0000 H       1  UNL1        0.2095
    145 H          12.6599    0.9663    0.0000 H       1  UNL1        0.0648
    146 H          12.9609    3.4000    0.0000 H       1  UNL1        0.0621
    147 H          13.5129    2.0963    0.0000 H       1  UNL1        0.0650
    148 H          10.3947    0.6301    0.0000 H       1  UNL1        0.2101
    149 H          14.1444    2.7567    0.0000 H       1  UNL1        0.0255
    150 H          14.3616    3.6062    0.0000 H       1  UNL1        0.0255
    151 H          13.5120    3.8233    0.0000 H       1  UNL1        0.0255
    152 H          11.5977   -0.0460    0.0000 H       1  UNL1        0.2100
    153 H          13.3224    0.5940    0.0000 H       1  UNL1        0.0937
    154 H          14.7275    0.4202    0.0000 H       1  UNL1        0.0671
    155 H          15.2796   -0.8835    0.0000 H       1  UNL1        0.0647
    156 H          12.4025   -1.1191    0.0000 H       1  UNL1        0.0587
    157 H          12.8090   -1.8047    0.0000 H       1  UNL1        0.0587
    158 H          14.4265   -2.0134    0.0000 H       1  UNL1        0.0643
    159 H          16.1353    0.0065    0.0000 H       1  UNL1        0.2101
    160 H          15.6252   -2.3096    0.0000 H       1  UNL1        0.2100
    161 H          13.3643   -3.0258    0.0000 H       1  UNL1        0.2100
@<TRIPOS>BOND
     1    41     1    1
     2    55     1    1
     3    43     2    1
     4     2   120    1
     5     3    52    1
     6    57     3    1
     7     4    51    1
     8     4   122    1
     9     5    51    2
    10     6    52    2
    11     7    55    1
    12     7    59    1
    13     8    57    1
    14     8    63    1
    15    56     9    1
    16     9   129    1
    17    58    10    1
    18    10   135    1
    19    60    11    1
    20    67    11    1
    21    61    12    1
    22    12   136    1
    23    62    13    1
    24    13   140    1
    25    14    64    1
    26    14   141    1
    27    65    15    1
    28    15   142    1
    29    16    67    1
    30    16    70    1
    31    17    66    1
    32    17   144    1
    33    68    18    1
    34    18   148    1
    35    69    19    1
    36    19   152    1
    37    71    20    1
    38    73    20    1
    39    21    73    1
    40    21    76    1
    41    74    22    1
    42    22   159    1
    43    75    23    1
    44    23   160    1
    45    77    24    1
    46    24   161    1
    47    25    26    1
    48    25    28    1
    49    25    30    1
    50    25    39    1
    51    26    27    1
    52    26    35    1
    53    26    78    1
    54    27    29    1
    55    27    36    1
    56    27    44    1
    57    28    31    1
    58    28    37    1
    59    28    45    1
    60    29    32    1
    61    29    33    1
    62    29    79    1
    63    30    32    1
    64    30    80    1
    65    30    81    1
    66    31    34    1
    67    31    42    2
    68    32    82    1
    69    32    83    1
    70    33    41    1
    71    33    50    1
    72    33    51    1
    73    34    38    1
    74    34    46    1
    75    34    84    1
    76    35    42    1
    77    35    85    1
    78    35    86    1
    79    36    43    1
    80    36    87    1
    81    36    88    1
    82    37    40    1
    83    37    89    1
    84    37    90    1
    85    38    40    1
    86    38    47    1
    87    38    52    1
    88    39    91    1
    89    39    92    1
    90    39    93    1
    91    40    94    1
    92    40    95    1
    93    41    43    1
    94    41    96    1
    95    42    97    1
    96    43    98    1
    97    44    99    1
    98    44   100    1
    99    44   101    1
   100    45   102    1
   101    45   103    1
   102    45   104    1
   103    46    48    1
   104    46   105    1
   105    46   106    1
   106    47    49    1
   107    47   107    1
   108    47   108    1
   109    48    49    1
   110    48    53    1
   111    48    54    1
   112    49   109    1
   113    49   110    1
   114    50   111    1
   115    50   112    1
   116    50   113    1
   117    53   116    1
   118    53   117    1
   119    53   118    1
   120    54   114    1
   121    54   115    1
   122    54   119    1
   123    55    56    1
   124    55   121    1
   125    56    58    1
   126    56   123    1
   127    57    60    1
   128    57   124    1
   129    58    61    1
   130    58   125    1
   131    59    61    1
   132    59    64    1
   133    59   126    1
   134    60    62    1
   135    60   127    1
   136    61   128    1
   137    62    65    1
   138    62   130    1
   139    63    65    1
   140    63    66    1
   141    63   131    1
   142    64   132    1
   143    64   133    1
   144    65   134    1
   145    66   137    1
   146    66   138    1
   147    67    68    1
   148    67   139    1
   149    68    69    1
   150    68   143    1
   151    69    71    1
   152    69   145    1
   153    70    71    1
   154    70    72    1
   155    70   146    1
   156    71   147    1
   157    72   149    1
   158    72   150    1
   159    72   151    1
   160    73    74    1
   161    73   153    1
   162    74    75    1
   163    74   154    1
   164    75    77    1
   165    75   155    1
   166    76    77    1
   167    76   156    1
   168    76   157    1
   169    77   158    1
