@<TRIPOS>MOLECULE
IMPHY009626
 30 29 0 0 0
SMALL
GASTEIGER

@<TRIPOS>ATOM
      1 O           2.5369    0.7500    0.0000 O.3     1  UNL1       -0.3921
      2 C           6.0010    0.7500    0.0000 C.3     1  UNL1       -0.0530
      3 C           5.1350    0.2500    0.0000 C.3     1  UNL1       -0.0507
      4 C           6.8671    0.2500    0.0000 C.3     1  UNL1       -0.0531
      5 C           4.2690    0.7500    0.0000 C.3     1  UNL1       -0.0271
      6 C           7.7331    0.7500    0.0000 C.3     1  UNL1       -0.0533
      7 C           3.4030    0.2500    0.0000 C.3     1  UNL1        0.0524
      8 C           8.5991    0.2500    0.0000 C.3     1  UNL1       -0.0559
      9 C           3.4030   -0.7500    0.0000 C.3     1  UNL1       -0.0389
     10 C           9.4651    0.7500    0.0000 C.3     1  UNL1       -0.0653
     11 H           6.3996    1.2250    0.0000 H       1  UNL1        0.0265
     12 H           5.6025    1.2250    0.0000 H       1  UNL1        0.0265
     13 H           4.7365   -0.2249    0.0000 H       1  UNL1        0.0266
     14 H           5.5335   -0.2249    0.0000 H       1  UNL1        0.0266
     15 H           6.4685   -0.2249    0.0000 H       1  UNL1        0.0265
     16 H           7.2656   -0.2249    0.0000 H       1  UNL1        0.0265
     17 H           4.6675    1.2250    0.0000 H       1  UNL1        0.0290
     18 H           3.8705    1.2250    0.0000 H       1  UNL1        0.0290
     19 H           8.1316    1.2250    0.0000 H       1  UNL1        0.0265
     20 H           7.3346    1.2250    0.0000 H       1  UNL1        0.0265
     21 H           3.4030    1.1000    0.0000 H       1  UNL1        0.0590
     22 H           8.2006   -0.2249    0.0000 H       1  UNL1        0.0263
     23 H           8.9976   -0.2249    0.0000 H       1  UNL1        0.0263
     24 H           2.7830   -0.7500    0.0000 H       1  UNL1        0.0254
     25 H           3.4030   -1.3700    0.0000 H       1  UNL1        0.0254
     26 H           4.0230   -0.7500    0.0000 H       1  UNL1        0.0254
     27 H           9.7751    0.2131    0.0000 H       1  UNL1        0.0230
     28 H          10.0021    1.0600    0.0000 H       1  UNL1        0.0230
     29 H           9.1551    1.2869    0.0000 H       1  UNL1        0.0230
     30 H           2.0000    0.4400    0.0000 H       1  UNL1        0.2098
@<TRIPOS>BOND
     1     1     7    1
     2     1    30    1
     3     2     3    1
     4     2     4    1
     5     2    11    1
     6     2    12    1
     7     3     5    1
     8     3    13    1
     9     3    14    1
    10     4     6    1
    11     4    15    1
    12     4    16    1
    13     5     7    1
    14     5    17    1
    15     5    18    1
    16     6     8    1
    17     6    19    1
    18     6    20    1
    19     7     9    1
    20     7    21    1
    21     8    10    1
    22     8    22    1
    23     8    23    1
    24     9    24    1
    25     9    25    1
    26     9    26    1
    27    10    27    1
    28    10    28    1
    29    10    29    1
