@<TRIPOS>MOLECULE
IMPHY017170
 21 20 0 0 0
SMALL
GASTEIGER

@<TRIPOS>ATOM
      1 O           4.5981    0.7500    0.0000 O.3     1  UNL1       -0.3771
      2 C           3.7320    0.2500    0.0000 C.3     1  UNL1        0.0556
      3 C           2.8660    0.7500    0.0000 C.3     1  UNL1       -0.0297
      4 C           3.7320   -0.7500    0.0000 C.3     1  UNL1       -0.0387
      5 C           2.0000    0.2500    0.0000 C.3     1  UNL1       -0.0629
      6 C           5.4641    0.2500    0.0000 C.3     1  UNL1        0.0452
      7 C           6.3301    0.7500    0.0000 C.3     1  UNL1       -0.0416
      8 H           3.7320    0.8700    0.0000 H       1  UNL1        0.0593
      9 H           3.2646    1.2250    0.0000 H       1  UNL1        0.0287
     10 H           2.4675    1.2250    0.0000 H       1  UNL1        0.0287
     11 H           3.1120   -0.7500    0.0000 H       1  UNL1        0.0254
     12 H           3.7320   -1.3700    0.0000 H       1  UNL1        0.0254
     13 H           4.3520   -0.7500    0.0000 H       1  UNL1        0.0254
     14 H           1.6900    0.7869    0.0000 H       1  UNL1        0.0231
     15 H           1.4631   -0.0600    0.0000 H       1  UNL1        0.0231
     16 H           2.3100   -0.2869    0.0000 H       1  UNL1        0.0231
     17 H           5.0656   -0.2249    0.0000 H       1  UNL1        0.0557
     18 H           5.8626   -0.2249    0.0000 H       1  UNL1        0.0557
     19 H           6.6401    0.2131    0.0000 H       1  UNL1        0.0252
     20 H           6.8671    1.0600    0.0000 H       1  UNL1        0.0252
     21 H           6.0201    1.2869    0.0000 H       1  UNL1        0.0252
@<TRIPOS>BOND
     1     1     2    1
     2     1     6    1
     3     2     3    1
     4     2     4    1
     5     2     8    1
     6     3     5    1
     7     3     9    1
     8     3    10    1
     9     4    11    1
    10     4    12    1
    11     4    13    1
    12     5    14    1
    13     5    15    1
    14     5    16    1
    15     6     7    1
    16     6    17    1
    17     6    18    1
    18     7    19    1
    19     7    20    1
    20     7    21    1
