@<TRIPOS>MOLECULE
IMPHY005171
 84 87 0 0 0
SMALL
GASTEIGER

@<TRIPOS>ATOM
      1 O           6.0010   -2.7500    0.0000 O.3     1  UNL1       -0.3378
      2 O           6.0010    0.2500    0.0000 O.3     1  UNL1       -0.3384
      3 O           4.2690   -2.7500    0.0000 O.3     1  UNL1       -0.3431
      4 O           7.7331   -1.7500    0.0000 O.3     1  UNL1       -0.4528
      5 O           4.2690   -1.7500    0.0000 O.3     1  UNL1       -0.4536
      6 O           4.2690    0.2500    0.0000 O.3     1  UNL1       -0.3475
      7 O           6.0010   -4.7500    0.0000 O.3     1  UNL1       -0.3841
      8 O           4.2690   -5.7500    0.0000 O.3     1  UNL1       -0.3864
      9 O           2.5369   -4.7500    0.0000 O.3     1  UNL1       -0.3866
     10 O           7.7331    1.2500    0.0000 O.3     1  UNL1       -0.3923
     11 O           8.5991   -0.2500    0.0000 O.2     1  UNL1       -0.2456
     12 O           3.4030   -0.2500    0.0000 O.2     1  UNL1       -0.2512
     13 O           5.1350    4.7500    0.0000 O.3     1  UNL1       -0.5033
     14 O           3.4030    5.7500    0.0000 O.3     1  UNL1       -0.5033
     15 O          13.7953   -3.2500    0.0000 O.3     1  UNL1       -0.5068
     16 C           6.0010   -1.7500    0.0000 C.3     1  UNL1        0.1426
     17 C           6.8671   -1.2500    0.0000 C.3     1  UNL1        0.1612
     18 C           5.1350   -1.2500    0.0000 C.3     1  UNL1        0.1830
     19 C           6.8671   -0.2500    0.0000 C.3     1  UNL1        0.1241
     20 C           5.1350   -3.2500    0.0000 C.3     1  UNL1        0.1884
     21 C           5.1350   -0.2500    0.0000 C.3     1  UNL1        0.1993
     22 C           5.1350   -4.2500    0.0000 C.3     1  UNL1        0.1341
     23 C           4.2690   -4.7500    0.0000 C.3     1  UNL1        0.1140
     24 C           3.4030   -4.2500    0.0000 C.3     1  UNL1        0.1095
     25 C           3.4030   -3.2500    0.0000 C.3     1  UNL1        0.0873
     26 C           7.7331    0.2500    0.0000 C.3     1  UNL1        0.0741
     27 C           2.5369   -2.7500    0.0000 C.3     1  UNL1       -0.0361
     28 C           4.2690    1.2500    0.0000 C.3     1  UNL1        0.0548
     29 C           8.5991   -1.2500    0.0000 C.2     1  UNL1        0.3324
     30 C           3.4030   -1.2500    0.0000 C.2     1  UNL1        0.3044
     31 C           3.4030    1.7500    0.0000 C.3     1  UNL1       -0.0039
     32 C           2.5369   -1.7500    0.0000 C.3     1  UNL1        0.0332
     33 C           9.4651   -1.7500    0.0000 C.2     1  UNL1        0.0231
     34 C           3.4030    2.7500    0.0000 C.ar    1  UNL1       -0.0415
     35 C          10.3312   -1.2500    0.0000 C.2     1  UNL1       -0.0478
     36 C           4.2690    3.2500    0.0000 C.ar    1  UNL1       -0.0133
     37 C           2.5369    3.2500    0.0000 C.ar    1  UNL1       -0.0548
     38 C           4.2690    4.2500    0.0000 C.ar    1  UNL1        0.1585
     39 C           2.5369    4.2500    0.0000 C.ar    1  UNL1       -0.0163
     40 C          11.1972   -1.7500    0.0000 C.ar    1  UNL1       -0.0246
     41 C           3.4030    4.7500    0.0000 C.ar    1  UNL1        0.1582
     42 C          11.1972   -2.7500    0.0000 C.ar    1  UNL1       -0.0511
     43 C          12.0632   -1.2500    0.0000 C.ar    1  UNL1       -0.0511
     44 C          12.0632   -3.2500    0.0000 C.ar    1  UNL1       -0.0196
     45 C          12.9292   -1.7500    0.0000 C.ar    1  UNL1       -0.0196
     46 C          12.9292   -2.7500    0.0000 C.ar    1  UNL1        0.1169
     47 H           6.5380   -2.0600    0.0000 H       1  UNL1        0.0674
     48 H           7.4040   -0.9400    0.0000 H       1  UNL1        0.0789
     49 H           5.1350   -1.8700    0.0000 H       1  UNL1        0.0813
     50 H           6.8671    0.3700    0.0000 H       1  UNL1        0.0658
     51 H           5.1350   -2.6300    0.0000 H       1  UNL1        0.0938
     52 H           5.1350    0.3700    0.0000 H       1  UNL1        0.0949
     53 H           5.1350   -4.8700    0.0000 H       1  UNL1        0.0671
     54 H           3.7320   -5.0600    0.0000 H       1  UNL1        0.0648
     55 H           2.8660   -3.9400    0.0000 H       1  UNL1        0.0646
     56 H           3.4030   -2.6300    0.0000 H       1  UNL1        0.0621
     57 H           7.9451   -0.3326    0.0000 H       1  UNL1        0.0584
     58 H           8.3437    0.3577    0.0000 H       1  UNL1        0.0584
     59 H           2.8469   -2.2131    0.0000 H       1  UNL1        0.0255
     60 H           2.0000   -2.4400    0.0000 H       1  UNL1        0.0255
     61 H           2.2269   -3.2869    0.0000 H       1  UNL1        0.0255
     62 H           6.0010   -5.3700    0.0000 H       1  UNL1        0.2101
     63 H           3.7320   -6.0600    0.0000 H       1  UNL1        0.2100
     64 H           2.0000   -4.4400    0.0000 H       1  UNL1        0.2100
     65 H           4.8796    1.1423    0.0000 H       1  UNL1        0.0564
     66 H           4.4810    1.8326    0.0000 H       1  UNL1        0.0564
     67 H           8.2700    1.5600    0.0000 H       1  UNL1        0.2095
     68 H           2.7924    1.8577    0.0000 H       1  UNL1        0.0335
     69 H           3.1909    1.1674    0.0000 H       1  UNL1        0.0335
     70 H           2.2269   -1.2131    0.0000 H       1  UNL1        0.0342
     71 H           2.0000   -2.0600    0.0000 H       1  UNL1        0.0342
     72 H           2.8469   -2.2869    0.0000 H       1  UNL1        0.0342
     73 H           9.4651   -2.3700    0.0000 H       1  UNL1        0.0689
     74 H          10.3312   -0.6300    0.0000 H       1  UNL1        0.0626
     75 H           4.8059    2.9400    0.0000 H       1  UNL1        0.0658
     76 H           2.0000    2.9400    0.0000 H       1  UNL1        0.0621
     77 H           2.0000    4.5600    0.0000 H       1  UNL1        0.0655
     78 H          10.6603   -3.0600    0.0000 H       1  UNL1        0.0625
     79 H          12.0632   -0.6300    0.0000 H       1  UNL1        0.0625
     80 H           5.1350    5.3700    0.0000 H       1  UNL1        0.2923
     81 H           2.8660    6.0600    0.0000 H       1  UNL1        0.2923
     82 H          12.0632   -3.8700    0.0000 H       1  UNL1        0.0654
     83 H          13.4662   -1.4400    0.0000 H       1  UNL1        0.0654
     84 H          14.3322   -2.9400    0.0000 H       1  UNL1        0.2921
@<TRIPOS>BOND
     1    16     1    1
     2    20     1    1
     3     2    19    1
     4     2    21    1
     5     3    20    1
     6     3    25    1
     7    17     4    1
     8     4    29    1
     9    18     5    1
    10     5    30    1
    11    21     6    1
    12     6    28    1
    13    22     7    1
    14     7    62    1
    15    23     8    1
    16     8    63    1
    17    24     9    1
    18     9    64    1
    19    10    26    1
    20    10    67    1
    21    11    29    2
    22    12    30    2
    23    13    38    1
    24    13    80    1
    25    14    41    1
    26    14    81    1
    27    15    46    1
    28    15    84    1
    29    16    17    1
    30    16    18    1
    31    16    47    1
    32    17    19    1
    33    17    48    1
    34    18    21    1
    35    18    49    1
    36    19    26    1
    37    19    50    1
    38    20    22    1
    39    20    51    1
    40    21    52    1
    41    22    23    1
    42    22    53    1
    43    23    24    1
    44    23    54    1
    45    24    25    1
    46    24    55    1
    47    25    27    1
    48    25    56    1
    49    26    57    1
    50    26    58    1
    51    27    59    1
    52    27    60    1
    53    27    61    1
    54    28    31    1
    55    28    65    1
    56    28    66    1
    57    29    33    1
    58    30    32    1
    59    31    34    1
    60    31    68    1
    61    31    69    1
    62    32    70    1
    63    32    71    1
    64    32    72    1
    65    33    35    2
    66    33    73    1
    67    34    36   ar
    68    34    37   ar
    69    35    40    1
    70    35    74    1
    71    36    38   ar
    72    36    75    1
    73    37    39   ar
    74    37    76    1
    75    38    41   ar
    76    39    41   ar
    77    39    77    1
    78    40    42   ar
    79    40    43   ar
    80    42    44   ar
    81    42    78    1
    82    43    45   ar
    83    43    79    1
    84    44    46   ar
    85    44    82    1
    86    45    46   ar
    87    45    83    1
