@<TRIPOS>MOLECULE
IMPHY017813
 56 55 0 0 0
SMALL
GASTEIGER

@<TRIPOS>ATOM
      1 O          13.2583    0.7500    0.0000 O.3     1  UNL1       -0.4646
      2 O          14.1244   -0.7500    0.0000 O.2     1  UNL1       -0.2508
      3 C           7.1962    0.2500    0.0000 C.3     1  UNL1       -0.0531
      4 C           8.0622    0.7500    0.0000 C.3     1  UNL1       -0.0531
      5 C           6.3301    0.7500    0.0000 C.3     1  UNL1       -0.0531
      6 C           8.9282    0.2500    0.0000 C.3     1  UNL1       -0.0531
      7 C           5.4641    0.2500    0.0000 C.3     1  UNL1       -0.0531
      8 C           9.7942    0.7500    0.0000 C.3     1  UNL1       -0.0530
      9 C           4.5981    0.7500    0.0000 C.3     1  UNL1       -0.0531
     10 C          10.6603    0.2500    0.0000 C.3     1  UNL1       -0.0500
     11 C           3.7320    0.2500    0.0000 C.3     1  UNL1       -0.0533
     12 C          11.5263    0.7500    0.0000 C.3     1  UNL1       -0.0185
     13 C           2.8660    0.7500    0.0000 C.3     1  UNL1       -0.0559
     14 C          12.3923    0.2500    0.0000 C.3     1  UNL1        0.0925
     15 C           2.0000    0.2500    0.0000 C.3     1  UNL1       -0.0653
     16 C          15.8564    0.2500    0.0000 C.3     1  UNL1       -0.0367
     17 C          14.9904    0.7500    0.0000 C.3     1  UNL1        0.0473
     18 C          14.1244    0.2500    0.0000 C.2     1  UNL1        0.3073
     19 C          16.7224    0.7500    0.0000 C.3     1  UNL1       -0.0622
     20 C          15.8564   -0.7500    0.0000 C.3     1  UNL1       -0.0622
     21 H           6.7976   -0.2249    0.0000 H       1  UNL1        0.0265
     22 H           7.5947   -0.2249    0.0000 H       1  UNL1        0.0265
     23 H           8.4607    1.2250    0.0000 H       1  UNL1        0.0265
     24 H           7.6636    1.2250    0.0000 H       1  UNL1        0.0265
     25 H           6.7287    1.2250    0.0000 H       1  UNL1        0.0265
     26 H           5.9316    1.2250    0.0000 H       1  UNL1        0.0265
     27 H           8.5297   -0.2249    0.0000 H       1  UNL1        0.0265
     28 H           9.3267   -0.2249    0.0000 H       1  UNL1        0.0265
     29 H           5.0656   -0.2249    0.0000 H       1  UNL1        0.0265
     30 H           5.8626   -0.2249    0.0000 H       1  UNL1        0.0265
     31 H          10.1928    1.2250    0.0000 H       1  UNL1        0.0265
     32 H           9.3957    1.2250    0.0000 H       1  UNL1        0.0265
     33 H           4.9966    1.2250    0.0000 H       1  UNL1        0.0265
     34 H           4.1996    1.2250    0.0000 H       1  UNL1        0.0265
     35 H          10.2617   -0.2249    0.0000 H       1  UNL1        0.0266
     36 H          11.0588   -0.2249    0.0000 H       1  UNL1        0.0266
     37 H           3.3335   -0.2249    0.0000 H       1  UNL1        0.0265
     38 H           4.1306   -0.2249    0.0000 H       1  UNL1        0.0265
     39 H          11.9248    1.2250    0.0000 H       1  UNL1        0.0298
     40 H          11.1278    1.2250    0.0000 H       1  UNL1        0.0298
     41 H           3.2646    1.2250    0.0000 H       1  UNL1        0.0263
     42 H           2.4675    1.2250    0.0000 H       1  UNL1        0.0263
     43 H          11.9938   -0.2249    0.0000 H       1  UNL1        0.0697
     44 H          12.7908   -0.2249    0.0000 H       1  UNL1        0.0697
     45 H          16.3933   -0.0600    0.0000 H       1  UNL1        0.0301
     46 H           1.6900    0.7869    0.0000 H       1  UNL1        0.0230
     47 H           1.4631   -0.0600    0.0000 H       1  UNL1        0.0230
     48 H           2.3100   -0.2869    0.0000 H       1  UNL1        0.0230
     49 H          15.3889    1.2250    0.0000 H       1  UNL1        0.0380
     50 H          14.5919    1.2250    0.0000 H       1  UNL1        0.0380
     51 H          17.0324    0.2131    0.0000 H       1  UNL1        0.0232
     52 H          17.2594    1.0600    0.0000 H       1  UNL1        0.0232
     53 H          16.4124    1.2869    0.0000 H       1  UNL1        0.0232
     54 H          15.2364   -0.7500    0.0000 H       1  UNL1        0.0232
     55 H          15.8564   -1.3700    0.0000 H       1  UNL1        0.0232
     56 H          16.4764   -0.7500    0.0000 H       1  UNL1        0.0232
@<TRIPOS>BOND
     1     1    14    1
     2     1    18    1
     3     2    18    2
     4     3     4    1
     5     3     5    1
     6     3    21    1
     7     3    22    1
     8     4     6    1
     9     4    23    1
    10     4    24    1
    11     5     7    1
    12     5    25    1
    13     5    26    1
    14     6     8    1
    15     6    27    1
    16     6    28    1
    17     7     9    1
    18     7    29    1
    19     7    30    1
    20     8    10    1
    21     8    31    1
    22     8    32    1
    23     9    11    1
    24     9    33    1
    25     9    34    1
    26    10    12    1
    27    10    35    1
    28    10    36    1
    29    11    13    1
    30    11    37    1
    31    11    38    1
    32    12    14    1
    33    12    39    1
    34    12    40    1
    35    13    15    1
    36    13    41    1
    37    13    42    1
    38    14    43    1
    39    14    44    1
    40    15    46    1
    41    15    47    1
    42    15    48    1
    43    16    17    1
    44    16    19    1
    45    16    20    1
    46    16    45    1
    47    17    18    1
    48    17    49    1
    49    17    50    1
    50    19    51    1
    51    19    52    1
    52    19    53    1
    53    20    54    1
    54    20    55    1
    55    20    56    1
