@<TRIPOS>MOLECULE
IMPHY002362
 49 53 0 0 0
SMALL
GASTEIGER

@<TRIPOS>ATOM
      1 O        2482.4800 2399.5500    0.0000 O.2     1  UNL1       -0.2862
      2 C        2482.4800 2439.5500    0.0000 C.ar    1  UNL1        0.2048
      3 C        2447.9400 2459.7000    0.0000 C.ar    1  UNL1        0.1125
      4 C        2447.9400 2500.0000    0.0000 C.ar    1  UNL1        0.1544
      5 O        2482.4800 2520.1500    0.0000 O.2     1  UNL1       -0.4531
      6 C        2517.0200 2500.0000    0.0000 C.ar    1  UNL1        0.1484
      7 C        2517.0200 2459.7000    0.0000 C.ar    1  UNL1        0.0797
      8 C        2551.6600 2520.0500    0.0000 C.ar    1  UNL1        0.0349
      9 C        2551.6600 2560.0500    0.0000 C.ar    1  UNL1        0.0061
     10 C        2586.4000 2580.0000    0.0000 C.ar    1  UNL1        0.0371
     11 C        2620.9400 2560.0500    0.0000 C.ar    1  UNL1        0.1414
     12 C        2620.9400 2520.0500    0.0000 C.ar    1  UNL1        0.0371
     13 C        2586.4000 2500.0000    0.0000 C.ar    1  UNL1        0.0061
     14 O        2655.5800 2580.0000    0.0000 O.3     1  UNL1       -0.4505
     15 C        2690.2200 2560.0500    0.0000 C.3     1  UNL1        0.3219
     16 O        2690.2200 2520.0500    0.0000 O.3     1  UNL1       -0.3145
     17 C        2724.8600 2500.0000    0.0000 C.3     1  UNL1        0.1952
     18 C        2724.8600 2460.0000    0.0000 C.3     1  UNL1        0.2405
     19 O        2759.8000 2440.6500    0.0000 O.3     1  UNL1       -0.4453
     20 C        2759.8000 2400.6500    0.0000 C.2     1  UNL1        0.3287
     21 C        2725.1600 2380.6000    0.0000 C.3     1  UNL1        0.2230
     22 C        2690.5200 2400.6500    0.0000 C.2     1  UNL1        0.3761
     23 O        2655.8800 2380.6000    0.0000 O.co2   1  UNL1       -0.2450
     24 O        2690.5200 2440.6500    0.0000 O.co2   1  UNL1       -0.2450
     25 O        2794.4400 2380.6000    0.0000 O.2     1  UNL1       -0.2495
     26 C        2759.6000 2520.0500    0.0000 C.3     1  UNL1        0.2156
     27 C        2759.6000 2560.0500    0.0000 C.3     1  UNL1        0.2212
     28 C        2724.8600 2580.0000    0.0000 C.3     1  UNL1        0.2542
     29 O        2724.8600 2620.0000    0.0000 O.3     1  UNL1       -0.2135
     30 O        2794.2400 2580.0000    0.0000 O.3     1  UNL1       -0.2173
     31 O        2794.2400 2500.0000    0.0000 O.3     1  UNL1       -0.2176
     32 C        2413.4000 2520.1500    0.0000 C.ar    1  UNL1        0.0748
     33 C        2378.8600 2500.0000    0.0000 C.ar    1  UNL1        0.1476
     34 C        2378.8600 2459.7000    0.0000 C.ar    1  UNL1        0.0793
     35 C        2413.4000 2439.5500    0.0000 C.ar    1  UNL1        0.2047
     36 O        2413.4000 2399.5500    0.0000 O.3     1  UNL1       -0.2862
     37 O        2344.1200 2520.0500    0.0000 O.3     1  UNL1       -0.4503
     38 C        2309.4800 2500.0000    0.0000 C.3     1  UNL1        0.3223
     39 O        2309.4800 2460.0000    0.0000 O.3     1  UNL1       -0.3067
     40 C        2274.9400 2440.0500    0.0000 C.3     1  UNL1        0.2538
     41 C        2274.9400 2400.0500    0.0000 C.2     1  UNL1        0.3941
     42 O        2240.3000 2380.0000    0.0000 O.co2   1  UNL1       -0.2429
     43 O        2309.5800 2380.0000    0.0000 O.co2   1  UNL1       -0.2429
     44 C        2240.2000 2460.0000    0.0000 C.3     1  UNL1        0.2230
     45 C        2240.2000 2500.0000    0.0000 C.3     1  UNL1        0.2216
     46 C        2274.9400 2520.0500    0.0000 C.3     1  UNL1        0.2542
     47 O        2274.9400 2560.0500    0.0000 O.3     1  UNL1       -0.2135
     48 O        2205.5600 2520.0500    0.0000 O.3     1  UNL1       -0.2173
     49 O        2205.5600 2440.0500    0.0000 O.3     1  UNL1       -0.2171
@<TRIPOS>BOND
     1     1     2    2
     2     2     3   ar
     3     2     7   ar
     4     3     4   ar
     5     3    35   ar
     6     4     5   ar
     7     4    32   ar
     8     6     5   ar
     9     6     8    1
    10     7     6   ar
    11     8     9   ar
    12     8    13   ar
    13     9    10   ar
    14    10    11   ar
    15    11    14    1
    16    12    11   ar
    17    13    12   ar
    18    15    14    1
    19    15    16    1
    20    15    28    1
    21    16    17    1
    22    17    18    1
    23    17    26    1
    24    18    19    1
    25    19    20    1
    26    20    21    1
    27    20    25    2
    28    21    22    1
    29    22    23   ar
    30    22    24   ar
    31    26    31    1
    32    27    26    1
    33    27    30    1
    34    28    27    1
    35    28    29    1
    36    32    33   ar
    37    33    37    1
    38    34    33   ar
    39    35    34   ar
    40    35    36    1
    41    38    37    1
    42    38    39    1
    43    38    46    1
    44    39    40    1
    45    40    41    1
    46    40    44    1
    47    41    42   ar
    48    41    43   ar
    49    44    49    1
    50    45    44    1
    51    45    48    1
    52    46    45    1
    53    46    47    1
