@<TRIPOS>MOLECULE
IMPHY013276
 35 36 0 0 0
SMALL
GASTEIGER

@<TRIPOS>ATOM
      1 O           4.2690    3.4050    0.0000 O.3     1  UNL1       -0.4915
      2 O           2.5369    2.4050    0.0000 O.3     1  UNL1       -0.5033
      3 O           9.4651   -0.5950    0.0000 O.3     1  UNL1       -0.5066
      4 O           7.7331   -3.5950    0.0000 O.3     1  UNL1       -0.5066
      5 C           6.0010    0.4050    0.0000 C.3     1  UNL1       -0.0236
      6 C           6.0010   -0.5950    0.0000 C.3     1  UNL1       -0.0235
      7 C           5.1350    0.9050    0.0000 C.ar    1  UNL1       -0.0434
      8 C           6.8671   -1.0950    0.0000 C.ar    1  UNL1       -0.0402
      9 C           5.1350    1.9050    0.0000 C.ar    1  UNL1       -0.0131
     10 C           4.2690    0.4050    0.0000 C.ar    1  UNL1       -0.0549
     11 C           6.8671   -2.0950    0.0000 C.ar    1  UNL1       -0.0168
     12 C           7.7331   -0.5950    0.0000 C.ar    1  UNL1       -0.0168
     13 C           4.2690    2.4050    0.0000 C.ar    1  UNL1        0.1615
     14 C           3.4030    0.9050    0.0000 C.ar    1  UNL1       -0.0163
     15 C           3.4030    1.9050    0.0000 C.ar    1  UNL1        0.1585
     16 C           8.5991   -1.0950    0.0000 C.ar    1  UNL1        0.1206
     17 C           7.7331   -2.5950    0.0000 C.ar    1  UNL1        0.1206
     18 C           8.5991   -2.0950    0.0000 C.ar    1  UNL1        0.0213
     19 C           5.1350    3.9050    0.0000 C.3     1  UNL1        0.0790
     20 H           6.6116    0.2973    0.0000 H       1  UNL1        0.0316
     21 H           6.2131    0.9876    0.0000 H       1  UNL1        0.0316
     22 H           5.3905   -0.4873    0.0000 H       1  UNL1        0.0316
     23 H           5.7890   -1.1776    0.0000 H       1  UNL1        0.0316
     24 H           5.6720    2.2150    0.0000 H       1  UNL1        0.0658
     25 H           4.2690   -0.2150    0.0000 H       1  UNL1        0.0621
     26 H           6.3301   -2.4050    0.0000 H       1  UNL1        0.0657
     27 H           7.7331    0.0250    0.0000 H       1  UNL1        0.0657
     28 H           2.8660    0.5950    0.0000 H       1  UNL1        0.0655
     29 H           9.1360   -2.4050    0.0000 H       1  UNL1        0.0691
     30 H           2.0000    2.0950    0.0000 H       1  UNL1        0.2923
     31 H          10.0021   -0.9050    0.0000 H       1  UNL1        0.2921
     32 H           8.2700   -3.9050    0.0000 H       1  UNL1        0.2921
     33 H           5.4450    3.3681    0.0000 H       1  UNL1        0.0660
     34 H           5.6720    4.2150    0.0000 H       1  UNL1        0.0660
     35 H           4.8250    4.4419    0.0000 H       1  UNL1        0.0660
@<TRIPOS>BOND
     1     1    13    1
     2     1    19    1
     3     2    15    1
     4     2    30    1
     5     3    16    1
     6     3    31    1
     7     4    17    1
     8     4    32    1
     9     5     6    1
    10     5     7    1
    11     5    20    1
    12     5    21    1
    13     6     8    1
    14     6    22    1
    15     6    23    1
    16     7     9   ar
    17     7    10   ar
    18     8    11   ar
    19     8    12   ar
    20     9    13   ar
    21     9    24    1
    22    10    14   ar
    23    10    25    1
    24    11    17   ar
    25    11    26    1
    26    12    16   ar
    27    12    27    1
    28    13    15   ar
    29    14    15   ar
    30    14    28    1
    31    16    18   ar
    32    17    18   ar
    33    18    29    1
    34    19    33    1
    35    19    34    1
    36    19    35    1
