@<TRIPOS>MOLECULE
IMPHY002305
 79 84 0 0 0
SMALL
GASTEIGER

@<TRIPOS>ATOM
      1 O           4.7029    2.8024    0.0000 O.3     1  UNL1       -0.4525
      2 O           2.8681    5.4601    0.0000 O.3     1  UNL1       -0.3907
      3 O           5.8876   -0.6209    0.0000 O.2     1  UNL1       -0.2923
      4 O           4.4811   -5.2672    0.0000 O.3     1  UNL1       -0.3912
      5 O           5.9004    3.9998    0.0000 O.2     1  UNL1       -0.2501
      6 C           3.1124   -0.3448    0.0000 C.3     1  UNL1       -0.0125
      7 C           3.0397    0.7377    0.0000 C.3     1  UNL1       -0.0009
      8 C           4.0900   -0.8156    0.0000 C.3     1  UNL1        0.0333
      9 C           4.1918   -1.9412    0.0000 C.3     1  UNL1       -0.0182
     10 C           3.8019    2.3685    0.0000 C.3     1  UNL1        0.1419
     11 C           2.9010    2.8024    0.0000 C.3     1  UNL1        0.0142
     12 C           3.2630   -2.5850    0.0000 C.3     1  UNL1       -0.0274
     13 C           3.8958    1.3311    0.0000 C.2     1  UNL1       -0.0163
     14 C           2.1690   -0.9670    0.0000 C.3     1  UNL1       -0.0459
     15 C           2.1012    1.1897    0.0000 C.3     1  UNL1       -0.0426
     16 C           2.2447   -2.0946    0.0000 C.3     1  UNL1       -0.0486
     17 C           2.0314    2.2290    0.0000 C.3     1  UNL1       -0.0428
     18 C           3.3419   -3.7596    0.0000 C.3     1  UNL1       -0.0056
     19 C           3.6951    3.5453    0.0000 C.3     1  UNL1        0.0096
     20 C           4.3019    4.5592    0.0000 C.3     1  UNL1        0.0946
     21 C           5.2640   -2.4273    0.0000 C.3     1  UNL1       -0.0443
     22 C           2.6785    3.7773    0.0000 C.3     1  UNL1       -0.0164
     23 C           4.9817   -0.1975    0.0000 C.2     1  UNL1        0.1603
     24 C           2.1174   -0.2453    0.0000 C.3     1  UNL1       -0.0581
     25 C           3.3019    4.5592    0.0000 C.3     1  UNL1        0.0715
     26 C           2.0725    0.4835    0.0000 C.3     1  UNL1       -0.0552
     27 C           4.8840    0.8831    0.0000 C.2     1  UNL1       -0.0154
     28 C           4.4025   -4.2703    0.0000 C.3     1  UNL1        0.0606
     29 C           5.0137   -1.3715    0.0000 C.3     1  UNL1       -0.0586
     30 C           5.3700   -3.5997    0.0000 C.3     1  UNL1       -0.0258
     31 C           2.0000    3.2363    0.0000 C.3     1  UNL1       -0.0555
     32 C           4.9254    3.7773    0.0000 C.2     1  UNL1        0.3165
     33 C           2.9045   -4.6588    0.0000 C.3     1  UNL1       -0.0572
     34 C           2.3444   -3.8304    0.0000 C.3     1  UNL1       -0.0572
     35 C           4.5245    5.5341    0.0000 C.3     1  UNL1       -0.0468
     36 H           4.8600   -1.1755    0.0000 H       1  UNL1        0.0392
     37 H           2.5588   -3.0611    0.0000 H       1  UNL1        0.0312
     38 H           1.9212   -0.3986    0.0000 H       1  UNL1        0.0271
     39 H           1.5666   -1.1138    0.0000 H       1  UNL1        0.0271
     40 H           1.4846    1.2546    0.0000 H       1  UNL1        0.0274
     41 H           1.9318    0.5933    0.0000 H       1  UNL1        0.0274
     42 H           1.6281   -2.0297    0.0000 H       1  UNL1        0.0268
     43 H           2.0753   -2.6910    0.0000 H       1  UNL1        0.0268
     44 H           1.7837    2.7973    0.0000 H       1  UNL1        0.0272
     45 H           1.4290    2.0822    0.0000 H       1  UNL1        0.0272
     46 H           3.2873    4.0123    0.0000 H       1  UNL1        0.0319
     47 H           3.1250    3.3014    0.0000 H       1  UNL1        0.0319
     48 H           5.8819   -2.4779    0.0000 H       1  UNL1        0.0272
     49 H           5.4196   -1.8271    0.0000 H       1  UNL1        0.0272
     50 H           2.2919    4.2621    0.0000 H       1  UNL1        0.0297
     51 H           2.1198    3.5083    0.0000 H       1  UNL1        0.0297
     52 H           2.1791    0.3717    0.0000 H       1  UNL1        0.0236
     53 H           1.5005   -0.1835    0.0000 H       1  UNL1        0.0236
     54 H           2.0557   -0.8622    0.0000 H       1  UNL1        0.0236
     55 H           3.6318    5.0841    0.0000 H       1  UNL1        0.0604
     56 H           1.9149    1.0832    0.0000 H       1  UNL1        0.0238
     57 H           1.4729    0.3259    0.0000 H       1  UNL1        0.0238
     58 H           2.2302   -0.1161    0.0000 H       1  UNL1        0.0238
     59 H           5.3894    1.2422    0.0000 H       1  UNL1        0.0653
     60 H           3.8909   -4.6206    0.0000 H       1  UNL1        0.0599
     61 H           5.3669   -1.8810    0.0000 H       1  UNL1        0.0235
     62 H           5.5232   -1.0183    0.0000 H       1  UNL1        0.0235
     63 H           4.6605   -0.8619    0.0000 H       1  UNL1        0.0235
     64 H           5.6308   -4.1622    0.0000 H       1  UNL1        0.0290
     65 H           5.9688   -3.4390    0.0000 H       1  UNL1        0.0290
     66 H           2.2690    3.7949    0.0000 H       1  UNL1        0.0236
     67 H           1.4414    3.5053    0.0000 H       1  UNL1        0.0236
     68 H           1.7310    2.6777    0.0000 H       1  UNL1        0.0236
     69 H           2.3004   -3.2120    0.0000 H       1  UNL1        0.0236
     70 H           1.7260   -3.8744    0.0000 H       1  UNL1        0.0236
     71 H           2.3470   -4.3877    0.0000 H       1  UNL1        0.0236
     72 H           2.6334   -5.2164    0.0000 H       1  UNL1        0.0236
     73 H           2.3883   -4.4489    0.0000 H       1  UNL1        0.0236
     74 H           3.4621   -4.9300    0.0000 H       1  UNL1        0.0236
     75 H           5.1289    5.3961    0.0000 H       1  UNL1        0.0241
     76 H           4.6624    6.1385    0.0000 H       1  UNL1        0.0241
     77 H           3.9200    5.6720    0.0000 H       1  UNL1        0.0241
     78 H           2.2498    5.5064    0.0000 H       1  UNL1        0.2098
     79 H           5.0407   -5.5341    0.0000 H       1  UNL1        0.2098
@<TRIPOS>BOND
     1     1    10    1
     2     1    32    1
     3    25     2    1
     4     2    78    1
     5     3    23    2
     6    28     4    1
     7     4    79    1
     8     5    32    2
     9     6     7    1
    10     6     8    1
    11     6    14    1
    12     6    24    1
    13     7    13    1
    14     7    15    1
    15     7    26    1
    16     8     9    1
    17     8    23    1
    18     8    36    1
    19     9    12    1
    20     9    21    1
    21     9    29    1
    22    10    11    1
    23    10    13    1
    24    10    19    1
    25    11    17    1
    26    11    22    1
    27    11    31    1
    28    12    16    1
    29    12    18    1
    30    12    37    1
    31    13    27    2
    32    14    16    1
    33    14    38    1
    34    14    39    1
    35    15    17    1
    36    15    40    1
    37    15    41    1
    38    16    42    1
    39    16    43    1
    40    17    44    1
    41    17    45    1
    42    18    28    1
    43    18    33    1
    44    18    34    1
    45    19    20    1
    46    19    46    1
    47    19    47    1
    48    20    25    1
    49    20    32    1
    50    20    35    1
    51    21    30    1
    52    21    48    1
    53    21    49    1
    54    22    25    1
    55    22    50    1
    56    22    51    1
    57    23    27    1
    58    24    52    1
    59    24    53    1
    60    24    54    1
    61    25    55    1
    62    26    56    1
    63    26    57    1
    64    26    58    1
    65    27    59    1
    66    28    30    1
    67    28    60    1
    68    29    61    1
    69    29    62    1
    70    29    63    1
    71    30    64    1
    72    30    65    1
    73    31    66    1
    74    31    67    1
    75    31    68    1
    76    33    71    1
    77    33    72    1
    78    33    74    1
    79    34    69    1
    80    34    70    1
    81    34    73    1
    82    35    75    1
    83    35    76    1
    84    35    77    1
