@<TRIPOS>MOLECULE
IMPHY006119
 48 50 0 0 0
SMALL
GASTEIGER

@<TRIPOS>ATOM
      1 O           2.6420    0.1585    0.0000 O.2     1  UNL1       -0.4769
      2 O           2.9511   -2.9682    0.0000 O.3     1  UNL1       -0.3846
      3 O           5.2111   -0.1505    0.0000 O.2     1  UNL1       -0.2876
      4 O           7.2280    0.5687    0.0000 O.2     1  UNL1       -0.2876
      5 C           3.4511   -0.4293    0.0000 C.3     1  UNL1        0.1992
      6 C           2.6420   -1.0171    0.0000 C.3     1  UNL1        0.0310
      7 C           2.9511   -1.9682    0.0000 C.3     1  UNL1        0.0864
      8 C           4.2601   -1.0171    0.0000 C.2     1  UNL1        0.0025
      9 C           3.9511   -1.9682    0.0000 C.2     1  UNL1       -0.0456
     10 C           4.2601    0.1585    0.0000 C.2     1  UNL1        0.2099
     11 C           2.9511    1.1095    0.0000 C.2     1  UNL1        0.1068
     12 C           3.9511    1.1095    0.0000 C.2     1  UNL1        0.0338
     13 C           3.4693    1.9046    0.0000 C.3     1  UNL1        0.0139
     14 C           4.3366    2.2901    0.0000 C.3     1  UNL1       -0.0097
     15 C           2.0000   -2.2772    0.0000 C.3     1  UNL1       -0.0323
     16 C           5.2034   -0.9125    0.0000 C.2     1  UNL1       -0.0480
     17 C           4.8646    1.5163    0.0000 C.3     1  UNL1       -0.0331
     18 C           4.4908    3.2782    0.0000 C.3     1  UNL1       -0.0559
     19 C           3.5291    2.8799    0.0000 C.3     1  UNL1       -0.0559
     20 C           5.2741    2.1420    0.0000 C.2     1  UNL1       -0.0743
     21 C           5.9382   -0.3119    0.0000 C.2     1  UNL1       -0.0034
     22 C           5.9803    1.5080    0.0000 C.2     1  UNL1       -0.0181
     23 C           6.2283    0.5918    0.0000 C.2     1  UNL1        0.1816
     24 C           6.7647   -0.8749    0.0000 C.3     1  UNL1       -0.0361
     25 H           2.3320   -0.4802    0.0000 H       1  UNL1        0.0343
     26 H           2.0756   -1.2693    0.0000 H       1  UNL1        0.0343
     27 H           4.3155   -2.4697    0.0000 H       1  UNL1        0.0604
     28 H           3.4159    2.5223    0.0000 H       1  UNL1        0.0352
     29 H           3.8714    1.4327    0.0000 H       1  UNL1        0.0352
     30 H           1.8084   -1.6875    0.0000 H       1  UNL1        0.0260
     31 H           1.4103   -2.4688    0.0000 H       1  UNL1        0.0260
     32 H           2.1916   -2.8668    0.0000 H       1  UNL1        0.0260
     33 H           5.4436   -1.4841    0.0000 H       1  UNL1        0.0625
     34 H           2.4141   -3.2782    0.0000 H       1  UNL1        0.2106
     35 H           5.1168    0.9499    0.0000 H       1  UNL1        0.0280
     36 H           5.4310    1.7684    0.0000 H       1  UNL1        0.0280
     37 H           4.6124    2.0827    0.0000 H       1  UNL1        0.0280
     38 H           5.1034    3.1826    0.0000 H       1  UNL1        0.0238
     39 H           4.5864    3.8907    0.0000 H       1  UNL1        0.0238
     40 H           3.8782    3.3738    0.0000 H       1  UNL1        0.0238
     41 H           3.8948    3.3806    0.0000 H       1  UNL1        0.0238
     42 H           3.0284    3.2456    0.0000 H       1  UNL1        0.0238
     43 H           3.1634    2.3792    0.0000 H       1  UNL1        0.0238
     44 H           5.5405    2.7019    0.0000 H       1  UNL1        0.0579
     45 H           6.5083    1.8330    0.0000 H       1  UNL1        0.0653
     46 H           6.4156   -1.3873    0.0000 H       1  UNL1        0.0279
     47 H           7.2770   -1.2240    0.0000 H       1  UNL1        0.0279
     48 H           7.1137   -0.3625    0.0000 H       1  UNL1        0.0279
@<TRIPOS>BOND
     1     1     5    1
     2     1    11    1
     3     2     7    1
     4     2    34    1
     5     3    10    2
     6     4    23    2
     7     5     6    1
     8     5     8    1
     9     5    10    1
    10     6     7    1
    11     6    25    1
    12     6    26    1
    13     7     9    1
    14     7    15    1
    15     8     9    2
    16     8    16    1
    17     9    27    1
    18    10    12    1
    19    11    12    2
    20    11    13    1
    21    12    17    1
    22    13    14    1
    23    13    28    1
    24    13    29    1
    25    14    18    1
    26    14    19    1
    27    14    20    1
    28    15    30    1
    29    15    31    1
    30    15    32    1
    31    16    21    2
    32    16    33    1
    33    17    35    1
    34    17    36    1
    35    17    37    1
    36    18    38    1
    37    18    39    1
    38    18    40    1
    39    19    41    1
    40    19    42    1
    41    19    43    1
    42    20    22    2
    43    20    44    1
    44    21    23    1
    45    21    24    1
    46    22    23    1
    47    22    45    1
    48    24    46    1
    49    24    47    1
    50    24    48    1
