@<TRIPOS>MOLECULE
IMPHY017417
 24 23 0 0 0
SMALL
GASTEIGER

@<TRIPOS>ATOM
      1 O           5.4641    0.4400    0.0000 O.3     1  UNL1       -0.4616
      2 O           4.5981   -1.0600    0.0000 O.2     1  UNL1       -0.2456
      3 C           7.1962    0.4400    0.0000 C.3     1  UNL1       -0.0188
      4 C           8.0622   -0.0600    0.0000 C.3     1  UNL1       -0.0528
      5 C           6.3301   -0.0600    0.0000 C.3     1  UNL1        0.0928
      6 C           8.9282    0.4400    0.0000 C.3     1  UNL1       -0.0652
      7 C           4.5981   -0.0600    0.0000 C.2     1  UNL1        0.3316
      8 C           3.7320    0.4400    0.0000 C.2     1  UNL1        0.0183
      9 C           2.8660   -0.0600    0.0000 C.2     1  UNL1       -0.0804
     10 C           2.0000    0.4400    0.0000 C.3     1  UNL1       -0.0463
     11 H           7.5947    0.9149    0.0000 H       1  UNL1        0.0298
     12 H           6.7976    0.9149    0.0000 H       1  UNL1        0.0298
     13 H           7.6636   -0.5349    0.0000 H       1  UNL1        0.0264
     14 H           8.4607   -0.5349    0.0000 H       1  UNL1        0.0264
     15 H           5.9316   -0.5349    0.0000 H       1  UNL1        0.0697
     16 H           6.7287   -0.5349    0.0000 H       1  UNL1        0.0697
     17 H           9.2382   -0.0969    0.0000 H       1  UNL1        0.0230
     18 H           9.4651    0.7500    0.0000 H       1  UNL1        0.0230
     19 H           8.6182    0.9769    0.0000 H       1  UNL1        0.0230
     20 H           3.7320    1.0600    0.0000 H       1  UNL1        0.0685
     21 H           2.8660   -0.6800    0.0000 H       1  UNL1        0.0571
     22 H           2.3100    0.9769    0.0000 H       1  UNL1        0.0272
     23 H           1.4631    0.7500    0.0000 H       1  UNL1        0.0272
     24 H           1.6900   -0.0969    0.0000 H       1  UNL1        0.0272
@<TRIPOS>BOND
     1     1     5    1
     2     1     7    1
     3     2     7    2
     4     3     4    1
     5     3     5    1
     6     3    11    1
     7     3    12    1
     8     4     6    1
     9     4    13    1
    10     4    14    1
    11     5    15    1
    12     5    16    1
    13     6    17    1
    14     6    18    1
    15     6    19    1
    16     7     8    1
    17     8     9    2
    18     8    20    1
    19     9    10    1
    20     9    21    1
    21    10    22    1
    22    10    23    1
    23    10    24    1
