@<TRIPOS>MOLECULE
IMPHY006663
 45 46 0 0 0
SMALL
GASTEIGER

@<TRIPOS>ATOM
      1 O           5.8550   -2.6093    0.0000 O.3     1  UNL1       -0.4606
      2 O           7.5013   -2.0712    0.0000 O.2     1  UNL1       -0.2512
      3 O           2.0000    3.1460    0.0000 O.3     1  UNL1       -0.4774
      4 O           3.7320    3.1460    0.0000 O.2     1  UNL1       -0.2455
      5 C           4.5981   -1.3540    0.0000 C.3     1  UNL1        0.0209
      6 C           3.7320   -1.8540    0.0000 C.3     1  UNL1       -0.0339
      7 C           4.5981   -0.3540    0.0000 C.2     1  UNL1       -0.0568
      8 C           5.5443   -1.6587    0.0000 C.3     1  UNL1        0.1134
      9 C           3.7320    0.1460    0.0000 C.3     1  UNL1       -0.0004
     10 C           2.8660   -1.3540    0.0000 C.3     1  UNL1       -0.0490
     11 C           2.8660   -0.3540    0.0000 C.3     1  UNL1       -0.0427
     12 C           6.1279   -0.8540    0.0000 C.3     1  UNL1        0.0062
     13 C           5.5443   -0.0493    0.0000 C.2     1  UNL1       -0.0689
     14 C           3.7320   -2.8540    0.0000 C.3     1  UNL1       -0.0618
     15 C           3.7320    1.1460    0.0000 C.2     1  UNL1       -0.0672
     16 C           5.8550    0.9012    0.0000 C.3     1  UNL1       -0.0434
     17 C           2.8660    1.6460    0.0000 C.2     1  UNL1        0.0300
     18 C           6.8335   -2.8155    0.0000 C.2     1  UNL1        0.3042
     19 C           2.0000    1.1460    0.0000 C.3     1  UNL1       -0.0332
     20 C           2.8660    2.6460    0.0000 C.2     1  UNL1        0.3322
     21 C           7.1441   -3.7660    0.0000 C.3     1  UNL1        0.0332
     22 H           4.6880   -2.1992    0.0000 H       1  UNL1        0.0384
     23 H           4.2690   -2.1640    0.0000 H       1  UNL1        0.0305
     24 H           5.1068   -2.0981    0.0000 H       1  UNL1        0.0743
     25 H           4.2690    0.4560    0.0000 H       1  UNL1        0.0388
     26 H           2.2554   -1.2463    0.0000 H       1  UNL1        0.0268
     27 H           2.6540   -1.9366    0.0000 H       1  UNL1        0.0268
     28 H           2.6540    0.2286    0.0000 H       1  UNL1        0.0274
     29 H           2.2554   -0.4617    0.0000 H       1  UNL1        0.0274
     30 H           6.5888   -1.2687    0.0000 H       1  UNL1        0.0346
     31 H           6.5888   -0.4393    0.0000 H       1  UNL1        0.0346
     32 H           3.1120   -2.8540    0.0000 H       1  UNL1        0.0233
     33 H           3.7320   -3.4740    0.0000 H       1  UNL1        0.0233
     34 H           4.3520   -2.8540    0.0000 H       1  UNL1        0.0233
     35 H           4.2690    1.4560    0.0000 H       1  UNL1        0.0583
     36 H           6.4443    0.7086    0.0000 H       1  UNL1        0.0274
     37 H           6.0476    1.4906    0.0000 H       1  UNL1        0.0274
     38 H           5.2656    1.0939    0.0000 H       1  UNL1        0.0274
     39 H           1.6900    1.6829    0.0000 H       1  UNL1        0.0280
     40 H           1.4631    0.8360    0.0000 H       1  UNL1        0.0280
     41 H           2.3100    0.6091    0.0000 H       1  UNL1        0.0280
     42 H           6.5548   -3.9586    0.0000 H       1  UNL1        0.0342
     43 H           7.3367   -4.3553    0.0000 H       1  UNL1        0.0342
     44 H           7.7334   -3.5734    0.0000 H       1  UNL1        0.0342
     45 H           2.0000    3.7660    0.0000 H       1  UNL1        0.2954
@<TRIPOS>BOND
     1     8     1    1
     2     1    18    1
     3     2    18    2
     4     3    20    1
     5     3    45    1
     6     4    20    2
     7     5     6    1
     8     5     7    1
     9     5     8    1
    10     5    22    1
    11     6    10    1
    12     6    14    1
    13     6    23    1
    14     7     9    1
    15     7    13    2
    16     8    12    1
    17     8    24    1
    18     9    11    1
    19     9    15    1
    20     9    25    1
    21    10    11    1
    22    10    26    1
    23    10    27    1
    24    11    28    1
    25    11    29    1
    26    12    13    1
    27    12    30    1
    28    12    31    1
    29    13    16    1
    30    14    32    1
    31    14    33    1
    32    14    34    1
    33    15    17    2
    34    15    35    1
    35    16    36    1
    36    16    37    1
    37    16    38    1
    38    17    19    1
    39    17    20    1
    40    18    21    1
    41    19    39    1
    42    19    40    1
    43    19    41    1
    44    21    42    1
    45    21    43    1
    46    21    44    1
