@<TRIPOS>MOLECULE
IMPHY008591
 209 224 0 0 0
SMALL
GASTEIGER

@<TRIPOS>ATOM
      1 O           5.9860   -2.6528    0.0000 O.3     1  UNL1       -0.3281
      2 O          16.5876    2.6172    0.0000 O.3     1  UNL1       -0.3281
      3 O           8.4266   -4.6473    0.0000 O.3     1  UNL1       -0.4500
      4 O           6.8680   -5.1943    0.0000 O.3     1  UNL1       -0.4512
      5 O           8.4494   -1.6962    0.0000 O.3     1  UNL1       -0.4476
      6 O          14.7610    5.0838    0.0000 O.3     1  UNL1       -0.4500
      7 O          13.9413    3.2249    0.0000 O.3     1  UNL1       -0.4511
      8 O          16.7468    5.3212    0.0000 O.3     1  UNL1       -0.4476
      9 O           6.8802   -1.1251    0.0000 O.3     1  UNL1       -0.4275
     10 O          17.9817    3.7080    0.0000 O.3     1  UNL1       -0.4275
     11 O           4.8772   -5.1603    0.0000 O.3     1  UNL1       -0.4584
     12 O          15.7524    0.7729    0.0000 O.3     1  UNL1       -0.4584
     13 O           9.4939   -6.0351    0.0000 O.2     1  UNL1       -0.2449
     14 O           9.5379   -0.3250    0.0000 O.2     1  UNL1       -0.2449
     15 O           5.8477   -6.8746    0.0000 O.2     1  UNL1       -0.2449
     16 O          14.5553    6.8036    0.0000 O.2     1  UNL1       -0.2449
     17 O          12.7286    0.4809    0.0000 O.3     1  UNL1       -0.4476
     18 O          18.3390    4.6394    0.0000 O.2     1  UNL1       -0.2449
     19 O          14.1271    1.5028    0.0000 O.2     1  UNL1       -0.2448
     20 O           5.1481   -1.1318    0.0000 O.2     1  UNL1       -0.2449
     21 O          18.2072    1.9907    0.0000 O.2     1  UNL1       -0.2449
     22 O           5.8772   -5.1603    0.0000 O.2     1  UNL1       -0.2449
     23 O          13.4991   -2.7628    0.0000 O.3     1  UNL1       -0.5028
     24 O          13.4922   -3.6587    0.0000 O.3     1  UNL1       -0.5028
     25 O          17.1429    1.8056    0.0000 O.2     1  UNL1       -0.2450
     26 O          16.2854    9.2485    0.0000 O.3     1  UNL1       -0.5028
     27 O          14.0275   -1.3111    0.0000 O.3     1  UNL1       -0.5009
     28 O          17.3208    8.9171    0.0000 O.3     1  UNL1       -0.5028
     29 O           6.3741   -9.5285    0.0000 O.3     1  UNL1       -0.5028
     30 O          12.6893    6.7417    0.0000 O.3     1  UNL1       -0.4476
     31 O          12.6718   -6.8901    0.0000 O.3     1  UNL1       -0.5032
     32 O          13.9982   -5.1184    0.0000 O.3     1  UNL1       -0.5009
     33 O           5.3803   -9.5285    0.0000 O.3     1  UNL1       -0.5028
     34 O          13.7060    9.1160    0.0000 O.3     1  UNL1       -0.5009
     35 O           9.4464   -7.7704    0.0000 O.3     1  UNL1       -0.5032
     36 O          20.5802    7.5362    0.0000 O.3     1  UNL1       -0.5032
     37 O          19.3527    9.1759    0.0000 O.3     1  UNL1       -0.5009
     38 O           8.4223   -9.5443    0.0000 O.3     1  UNL1       -0.5009
     39 O          10.7401    0.2664    0.0000 O.3     1  UNL1       -0.5008
     40 O           3.3321   -9.5443    0.0000 O.3     1  UNL1       -0.5009
     41 O          10.3686    3.7106    0.0000 O.3     1  UNL1       -0.5032
     42 O           2.3079   -7.7704    0.0000 O.3     1  UNL1       -0.5032
     43 O           9.5601    1.8812    0.0000 O.3     1  UNL1       -0.5008
     44 O           4.2686    2.3649    0.0000 O.3     1  UNL1       -0.5032
     45 O           7.7327    2.3782    0.0000 O.3     1  UNL1       -0.5032
     46 O          21.3391    5.0224    0.0000 O.3     1  UNL1       -0.5032
     47 O          21.7902    1.5878    0.0000 O.3     1  UNL1       -0.5032
     48 O           5.9968    3.3715    0.0000 O.3     1  UNL1       -0.5009
     49 O          22.5562    3.4353    0.0000 O.3     1  UNL1       -0.5009
     50 O          19.9249   -0.4880    0.0000 O.3     1  UNL1       -0.5032
     51 O          17.1438   -2.5533    0.0000 O.3     1  UNL1       -0.5032
     52 O          19.1305   -2.3235    0.0000 O.3     1  UNL1       -0.5009
     53 O          11.1296    5.4897    0.0000 O.3     1  UNL1       -0.5008
     54 O           9.2656    6.2142    0.0000 O.3     1  UNL1       -0.5008
     55 O          12.2324    9.7067    0.0000 O.3     1  UNL1       -0.4644
     56 O           8.9610    8.1909    0.0000 O.3     1  UNL1       -0.5032
     57 O          13.3168    8.3561    0.0000 O.2     1  UNL1       -0.2448
     58 C           7.7780   -3.6875    0.0000 C.3     1  UNL1        0.1851
     59 C           6.8680   -4.1943    0.0000 C.3     1  UNL1        0.1730
     60 C           7.7861   -2.6459    0.0000 C.3     1  UNL1        0.2053
     61 C           6.0020   -3.6943    0.0000 C.3     1  UNL1        0.1371
     62 C          15.3603    4.2832    0.0000 C.3     1  UNL1        0.1851
     63 C          14.9355    3.3321    0.0000 C.3     1  UNL1        0.1730
     64 C          16.3532    4.4020    0.0000 C.3     1  UNL1        0.2053
     65 C          15.5533    2.4935    0.0000 C.3     1  UNL1        0.1371
     66 C           6.8840   -2.1251    0.0000 C.3     1  UNL1        0.2465
     67 C          16.9902    3.5778    0.0000 C.3     1  UNL1        0.2465
     68 C           5.1360   -4.1943    0.0000 C.3     1  UNL1        0.1226
     69 C          15.1562    1.5757    0.0000 C.3     1  UNL1        0.1226
     70 C           9.5180   -5.0354    0.0000 C.2     1  UNL1        0.3405
     71 C           9.5466   -1.3250    0.0000 C.2     1  UNL1        0.3406
     72 C           6.3772   -6.0263    0.0000 C.2     1  UNL1        0.3405
     73 C          15.1546    6.0030    0.0000 C.2     1  UNL1        0.3405
     74 C          17.7398    5.4400    0.0000 C.2     1  UNL1        0.3406
     75 C          13.5371    2.3102    0.0000 C.2     1  UNL1        0.3435
     76 C          10.6503   -1.6769    0.0000 C.ar    1  UNL1        0.0740
     77 C          10.6270   -4.7005    0.0000 C.ar    1  UNL1        0.0740
     78 C          11.3301   -2.6148    0.0000 C.ar    1  UNL1        0.0458
     79 C           6.0122   -0.6284    0.0000 C.2     1  UNL1        0.3417
     80 C           6.8772   -6.8923    0.0000 C.ar    1  UNL1        0.0740
     81 C          16.1475    6.1218    0.0000 C.ar    1  UNL1        0.0740
     82 C          11.3212   -3.7732    0.0000 C.ar    1  UNL1        0.0458
     83 C          18.1334    6.3592    0.0000 C.ar    1  UNL1        0.0740
     84 C          18.5902    2.9145    0.0000 C.2     1  UNL1        0.3417
     85 C          16.5412    7.0410    0.0000 C.ar    1  UNL1        0.0458
     86 C           5.3772   -6.0263    0.0000 C.2     1  UNL1        0.3401
     87 C          17.5341    7.1598    0.0000 C.ar    1  UNL1        0.0458
     88 C           6.3772   -7.7583    0.0000 C.ar    1  UNL1        0.0458
     89 C          12.5428    2.2030    0.0000 C.ar    1  UNL1        0.1085
     90 C           4.8772   -6.8923    0.0000 C.ar    1  UNL1        0.0740
     91 C           5.3772   -7.7583    0.0000 C.ar    1  UNL1        0.0458
     92 C          11.1252   -0.5678    0.0000 C.ar    1  UNL1       -0.0009
     93 C          11.0848   -5.8169    0.0000 C.ar    1  UNL1       -0.0017
     94 C          12.5320   -2.5086    0.0000 C.ar    1  UNL1        0.1708
     95 C          16.7457    0.8878    0.0000 C.2     1  UNL1        0.3395
     96 C          12.5213   -3.8980    0.0000 C.ar    1  UNL1        0.1708
     97 C           6.0084    0.3716    0.0000 C.ar    1  UNL1        0.0662
     98 C          12.3243   -0.4337    0.0000 C.ar    1  UNL1        0.1743
     99 C          14.6719    5.7380    0.0000 C.ar    1  UNL1       -0.0009
    100 C          12.1386    1.2883    0.0000 C.ar    1  UNL1        0.1876
    101 C           7.9187   -6.8763    0.0000 C.ar    1  UNL1       -0.0017
    102 C          19.1694    6.4670    0.0000 C.ar    1  UNL1       -0.0017
    103 C          19.5817    3.0447    0.0000 C.ar    1  UNL1        0.0662
    104 C          15.8006    8.3738    0.0000 C.ar    1  UNL1        0.1708
    105 C          13.0325   -1.4107    0.0000 C.ar    1  UNL1        0.2021
    106 C          17.9293    8.1235    0.0000 C.ar    1  UNL1        0.1708
    107 C           6.8840   -8.6683    0.0000 C.ar    1  UNL1        0.1708
    108 C          12.2817   -5.9694    0.0000 C.ar    1  UNL1        0.1628
    109 C          11.9528    3.0104    0.0000 C.ar    1  UNL1        0.0013
    110 C          13.0048   -5.0034    0.0000 C.ar    1  UNL1        0.2012
    111 C           4.8703   -8.6683    0.0000 C.ar    1  UNL1        0.1708
    112 C          13.6776    6.8940    0.0000 C.ar    1  UNL1        0.1743
    113 C           3.8357   -6.8763    0.0000 C.ar    1  UNL1       -0.0017
    114 C          14.2778    8.2956    0.0000 C.ar    1  UNL1        0.2021
    115 C           8.4464   -7.7743    0.0000 C.ar    1  UNL1        0.1628
    116 C          19.5868    7.4213    0.0000 C.ar    1  UNL1        0.1628
    117 C          18.9626    8.2552    0.0000 C.ar    1  UNL1        0.2012
    118 C          17.3419    0.0850    0.0000 C.ar    1  UNL1        0.0661
    119 C           7.9256   -8.6764    0.0000 C.ar    1  UNL1        0.2012
    120 C          11.1444    1.1811    0.0000 C.ar    1  UNL1        0.2060
    121 C           6.8724    0.8749    0.0000 C.ar    1  UNL1       -0.0023
    122 C           5.1404    0.8682    0.0000 C.ar    1  UNL1       -0.0023
    123 C           3.8287   -8.6764    0.0000 C.ar    1  UNL1        0.2012
    124 C          10.9586    2.9032    0.0000 C.ar    1  UNL1        0.1630
    125 C           3.3079   -7.7743    0.0000 C.ar    1  UNL1        0.1628
    126 C          20.1902    2.2512    0.0000 C.ar    1  UNL1       -0.0023
    127 C          19.9647    3.9685    0.0000 C.ar    1  UNL1       -0.0023
    128 C          10.5544    1.9885    0.0000 C.ar    1  UNL1        0.2044
    129 C           5.1366    1.8682    0.0000 C.ar    1  UNL1        0.1628
    130 C           6.8686    1.8749    0.0000 C.ar    1  UNL1        0.1628
    131 C          16.9448   -0.8328    0.0000 C.ar    1  UNL1       -0.0023
    132 C          18.3353    0.1999    0.0000 C.ar    1  UNL1       -0.0023
    133 C          20.9562    4.0987    0.0000 C.ar    1  UNL1        0.1628
    134 C          21.1817    2.3814    0.0000 C.ar    1  UNL1        0.1628
    135 C           6.0006    2.3716    0.0000 C.ar    1  UNL1        0.2006
    136 C          21.5647    3.3051    0.0000 C.ar    1  UNL1        0.2006
    137 C          18.9315   -0.6029    0.0000 C.ar    1  UNL1        0.1628
    138 C          17.5410   -1.6356    0.0000 C.ar    1  UNL1        0.1628
    139 C          11.7572    7.1040    0.0000 C.ar    1  UNL1        0.1876
    140 C          18.5343   -1.5207    0.0000 C.ar    1  UNL1        0.2006
    141 C          11.6049    8.0923    0.0000 C.ar    1  UNL1        0.1084
    142 C          10.9774    6.4780    0.0000 C.ar    1  UNL1        0.2060
    143 C          10.6729    8.4546    0.0000 C.ar    1  UNL1        0.0013
    144 C          10.0454    6.8402    0.0000 C.ar    1  UNL1        0.2044
    145 C           9.8931    7.8286    0.0000 C.ar    1  UNL1        0.1630
    146 C          12.3847    8.7184    0.0000 C.2     1  UNL1        0.3428
    147 C          11.3004   10.0690    0.0000 C.3     1  UNL1        0.0820
    148 H           7.5808   -4.5143    0.0000 H       1  UNL1        0.0813
    149 H           7.6009   -4.6250    0.0000 H       1  UNL1        0.0801
    150 H           7.6016   -1.8162    0.0000 H       1  UNL1        0.0837
    151 H           5.2626   -3.2750    0.0000 H       1  UNL1        0.0670
    152 H          14.5155    4.1888    0.0000 H       1  UNL1        0.0813
    153 H          14.6860    2.7646    0.0000 H       1  UNL1        0.0801
    154 H          17.1964    4.5094    0.0000 H       1  UNL1        0.0837
    155 H          15.9239    1.9964    0.0000 H       1  UNL1        0.0670
    156 H           6.3453   -1.8182    0.0000 H       1  UNL1        0.1098
    157 H          17.2266    4.1510    0.0000 H       1  UNL1        0.1098
    158 H           4.9755   -3.5955    0.0000 H       1  UNL1        0.0725
    159 H           4.5160   -4.1943    0.0000 H       1  UNL1        0.0725
    160 H          14.6386    1.9171    0.0000 H       1  UNL1        0.0725
    161 H          14.7301    1.1253    0.0000 H       1  UNL1        0.0725
    162 H          10.7556   -0.0700    0.0000 H       1  UNL1        0.0664
    163 H          10.7075   -6.3089    0.0000 H       1  UNL1        0.0664
    164 H          14.4869    5.1462    0.0000 H       1  UNL1        0.0664
    165 H           8.2225   -6.3358    0.0000 H       1  UNL1        0.0664
    166 H          19.5352    5.9664    0.0000 H       1  UNL1        0.0664
    167 H          12.2035    3.5775    0.0000 H       1  UNL1        0.0665
    168 H           3.5319   -6.3358    0.0000 H       1  UNL1        0.0664
    169 H           7.4106    0.5670    0.0000 H       1  UNL1        0.0663
    170 H           4.6047    0.5562    0.0000 H       1  UNL1        0.0663
    171 H          19.9528    1.6784    0.0000 H       1  UNL1        0.0663
    172 H          19.5874    4.4605    0.0000 H       1  UNL1        0.0663
    173 H          13.9355   -2.3223    0.0000 H       1  UNL1        0.2923
    174 H          13.9217   -4.1059    0.0000 H       1  UNL1        0.2923
    175 H          16.3289   -0.9040    0.0000 H       1  UNL1        0.0663
    176 H          18.5816    0.7689    0.0000 H       1  UNL1        0.0663
    177 H          15.9660    9.7799    0.0000 H       1  UNL1        0.2923
    178 H          14.2825   -0.7460    0.0000 H       1  UNL1        0.2924
    179 H          17.5582    9.4898    0.0000 H       1  UNL1        0.2923
    180 H           6.6778  -10.0690    0.0000 H       1  UNL1        0.2923
    181 H          12.2983   -7.3850    0.0000 H       1  UNL1        0.2923
    182 H          14.2444   -5.6874    0.0000 H       1  UNL1        0.2924
    183 H           5.0766  -10.0690    0.0000 H       1  UNL1        0.2923
    184 H          13.0882    9.0633    0.0000 H       1  UNL1        0.2924
    185 H           9.7585   -8.3062    0.0000 H       1  UNL1        0.2923
    186 H          20.9498    7.0385    0.0000 H       1  UNL1        0.2923
    187 H          19.9680    9.2519    0.0000 H       1  UNL1        0.2924
    188 H           9.0423   -9.5467    0.0000 H       1  UNL1        0.2924
    189 H          10.1237    0.1999    0.0000 H       1  UNL1        0.2924
    190 H           2.7121   -9.5467    0.0000 H       1  UNL1        0.2924
    191 H          10.6192    4.2776    0.0000 H       1  UNL1        0.2923
    192 H           2.0000   -7.2323    0.0000 H       1  UNL1        0.2923
    193 H           9.1943    2.3818    0.0000 H       1  UNL1        0.2924
    194 H           3.7329    2.0528    0.0000 H       1  UNL1        0.2923
    195 H           7.7303    2.9982    0.0000 H       1  UNL1        0.2923
    196 H          21.9539    5.1032    0.0000 H       1  UNL1        0.2923
    197 H          22.4049    1.6686    0.0000 H       1  UNL1        0.2923
    198 H           5.4587    3.6795    0.0000 H       1  UNL1        0.2924
    199 H          22.9334    2.9433    0.0000 H       1  UNL1        0.2924
    200 H          20.2945   -0.9858    0.0000 H       1  UNL1        0.2923
    201 H          17.5134   -3.0511    0.0000 H       1  UNL1        0.2923
    202 H          10.5785    9.0674    0.0000 H       1  UNL1        0.0665
    203 H          19.7464   -2.2523    0.0000 H       1  UNL1        0.2924
    204 H          10.6462    5.1015    0.0000 H       1  UNL1        0.2924
    205 H           8.6877    6.4388    0.0000 H       1  UNL1        0.2924
    206 H           8.8666    8.8036    0.0000 H       1  UNL1        0.2923
    207 H          11.5250   10.6469    0.0000 H       1  UNL1        0.0661
    208 H          10.7225   10.2936    0.0000 H       1  UNL1        0.0661
    209 H          11.0758    9.4911    0.0000 H       1  UNL1        0.0661
@<TRIPOS>BOND
     1     1    61    1
     2     1    66    1
     3     2    65    1
     4     2    67    1
     5     3    58    1
     6     3    70    1
     7     4    59    1
     8     4    72    1
     9     5    60    1
    10     5    71    1
    11     6    62    1
    12     6    73    1
    13    63     7    1
    14     7    75    1
    15     8    64    1
    16     8    74    1
    17    66     9    1
    18     9    79    1
    19    67    10    1
    20    10    84    1
    21    11    68    1
    22    11    86    1
    23    12    69    1
    24    12    95    1
    25    13    70    2
    26    14    71    2
    27    15    72    2
    28    16    73    2
    29    17    98    1
    30    17   100    1
    31    18    74    2
    32    19    75    2
    33    20    79    2
    34    21    84    2
    35    22    86    2
    36    23    94    1
    37    23   173    1
    38    24    96    1
    39    24   174    1
    40    25    95    2
    41    26   104    1
    42    26   177    1
    43    27   105    1
    44    27   178    1
    45    28   106    1
    46    28   179    1
    47    29   107    1
    48    29   180    1
    49    30   112    1
    50    30   139    1
    51    31   108    1
    52    31   181    1
    53    32   110    1
    54    32   182    1
    55    33   111    1
    56    33   183    1
    57    34   114    1
    58    34   184    1
    59    35   115    1
    60    35   185    1
    61    36   116    1
    62    36   186    1
    63    37   117    1
    64    37   187    1
    65    38   119    1
    66    38   188    1
    67    39   120    1
    68    39   189    1
    69    40   123    1
    70    40   190    1
    71    41   124    1
    72    41   191    1
    73    42   125    1
    74    42   192    1
    75    43   128    1
    76    43   193    1
    77    44   129    1
    78    44   194    1
    79    45   130    1
    80    45   195    1
    81    46   133    1
    82    46   196    1
    83    47   134    1
    84    47   197    1
    85    48   135    1
    86    48   198    1
    87    49   136    1
    88    49   199    1
    89    50   137    1
    90    50   200    1
    91    51   138    1
    92    51   201    1
    93    52   140    1
    94    52   203    1
    95    53   142    1
    96    53   204    1
    97    54   144    1
    98    54   205    1
    99    55   146    1
   100    55   147    1
   101    56   145    1
   102    56   206    1
   103    57   146    2
   104    58    59    1
   105    58    60    1
   106    58   148    1
   107    59    61    1
   108    59   149    1
   109    60    66    1
   110    60   150    1
   111    61    68    1
   112    61   151    1
   113    62    63    1
   114    62    64    1
   115    62   152    1
   116    63    65    1
   117    63   153    1
   118    64    67    1
   119    64   154    1
   120    65    69    1
   121    65   155    1
   122    66   156    1
   123    67   157    1
   124    68   158    1
   125    68   159    1
   126    69   160    1
   127    69   161    1
   128    70    77    1
   129    71    76    1
   130    72    80    1
   131    73    81    1
   132    74    83    1
   133    75    89    1
   134    76    78   ar
   135    76    92   ar
   136    77    82   ar
   137    77    93   ar
   138    78    82    1
   139    78    94   ar
   140    79    97    1
   141    80    88   ar
   142    80   101   ar
   143    81    85   ar
   144    81    99   ar
   145    82    96   ar
   146    83    87   ar
   147    83   102   ar
   148    84   103    1
   149    85    87    1
   150    85   104   ar
   151    86    90    1
   152    87   106   ar
   153    88    91    1
   154    88   107   ar
   155    89   100   ar
   156    89   109   ar
   157    90    91   ar
   158    90   113   ar
   159    91   111   ar
   160    92    98   ar
   161    92   162    1
   162    93   108   ar
   163    93   163    1
   164    94   105   ar
   165    95   118    1
   166    96   110   ar
   167    97   121   ar
   168    97   122   ar
   169    98   105   ar
   170    99   112   ar
   171    99   164    1
   172   100   120   ar
   173   101   115   ar
   174   101   165    1
   175   102   116   ar
   176   102   166    1
   177   103   126   ar
   178   103   127   ar
   179   104   114   ar
   180   106   117   ar
   181   107   119   ar
   182   108   110   ar
   183   109   124   ar
   184   109   167    1
   185   111   123   ar
   186   112   114   ar
   187   113   125   ar
   188   113   168    1
   189   115   119   ar
   190   116   117   ar
   191   118   131   ar
   192   118   132   ar
   193   120   128   ar
   194   121   130   ar
   195   121   169    1
   196   122   129   ar
   197   122   170    1
   198   123   125   ar
   199   124   128   ar
   200   126   134   ar
   201   126   171    1
   202   127   133   ar
   203   127   172    1
   204   129   135   ar
   205   130   135   ar
   206   131   138   ar
   207   131   175    1
   208   132   137   ar
   209   132   176    1
   210   133   136   ar
   211   134   136   ar
   212   137   140   ar
   213   138   140   ar
   214   139   141   ar
   215   139   142   ar
   216   141   143   ar
   217   141   146    1
   218   142   144   ar
   219   143   145   ar
   220   143   202    1
   221   144   145   ar
   222   147   207    1
   223   147   208    1
   224   147   209    1
