@<TRIPOS>MOLECULE
IMPHY013907
 43 48 0 0 0
SMALL
GASTEIGER

@<TRIPOS>ATOM
      1 O           2.7098   -1.0408    0.0000 O.3     1  UNL1       -0.3332
      2 O           2.5016   -2.0827    0.0000 O.3     1  UNL1       -0.3575
      3 O           2.5491   -3.1251    0.0000 O.2     1  UNL1       -0.2916
      4 O           6.4915    2.2049    0.0000 O.3     1  UNL1       -0.4526
      5 O           5.0654    2.9892    0.0000 O.3     1  UNL1       -0.4526
      6 N           4.4344   -0.2730    0.0000 N.3     1  UNL1       -0.2939
      7 C           4.2371   -1.2014    0.0000 C.3     1  UNL1        0.0955
      8 C           5.0591   -1.6760    0.0000 C.3     1  UNL1        0.0217
      9 C           3.4151   -1.6760    0.0000 C.3     1  UNL1        0.2481
     10 C           4.0398   -0.2730    0.0000 C.3     1  UNL1        0.0026
     11 C           5.7644   -1.0408    0.0000 C.3     1  UNL1       -0.0286
     12 C           3.0958   -0.1738    0.0000 C.3     1  UNL1        0.0896
     13 C           5.0591   -2.6251    0.0000 C.3     1  UNL1       -0.0346
     14 C           4.9542    0.0852    0.0000 C.ar    1  UNL1       -0.0299
     15 C           5.3784   -0.1738    0.0000 C.3     1  UNL1        0.0002
     16 C           4.1106    0.5493    0.0000 C.ar    1  UNL1       -0.0113
     17 C           4.2371   -3.0997    0.0000 C.3     1  UNL1        0.0121
     18 C           3.4151   -2.6251    0.0000 C.2     1  UNL1        0.1938
     19 C           3.5864    0.2569    0.0000 C.3     1  UNL1       -0.0120
     20 C           5.7542    0.5834    0.0000 C.ar    1  UNL1       -0.0120
     21 C           4.0909    1.4982    0.0000 C.ar    1  UNL1       -0.0102
     22 C           5.7345    1.5323    0.0000 C.ar    1  UNL1        0.1665
     23 C           4.9028    1.9897    0.0000 C.ar    1  UNL1        0.1666
     24 C           6.0689    3.1251    0.0000 C.3     1  UNL1        0.2332
     25 H           4.6564   -0.2082    0.0000 H       1  UNL1        0.0314
     26 H           4.0398    0.3470    0.0000 H       1  UNL1        0.0314
     27 H           6.1289   -1.5425    0.0000 H       1  UNL1        0.0287
     28 H           6.3014   -0.7309    0.0000 H       1  UNL1        0.0287
     29 H           2.4377    0.3642    0.0000 H       1  UNL1        0.0648
     30 H           5.2711   -3.2077    0.0000 H       1  UNL1        0.0278
     31 H           5.6697   -2.5174    0.0000 H       1  UNL1        0.0278
     32 H           5.9680    0.0178    0.0000 H       1  UNL1        0.0427
     33 H           5.2495    0.4327    0.0000 H       1  UNL1        0.0427
     34 H           3.8386   -3.5746    0.0000 H       1  UNL1        0.0344
     35 H           4.6356   -3.5746    0.0000 H       1  UNL1        0.0344
     36 H           3.9150    0.7827    0.0000 H       1  UNL1        0.0391
     37 H           3.0606    0.5855    0.0000 H       1  UNL1        0.0391
     38 H           3.2578   -0.2688    0.0000 H       1  UNL1        0.0391
     39 H           6.2993    0.2880    0.0000 H       1  UNL1        0.0658
     40 H           2.0000   -1.7183    0.0000 H       1  UNL1        0.2132
     41 H           3.5476    1.7970    0.0000 H       1  UNL1        0.0659
     42 H           6.6551    3.3271    0.0000 H       1  UNL1        0.1166
     43 H           5.9256    3.7283    0.0000 H       1  UNL1        0.1166
@<TRIPOS>BOND
     1     1     9    1
     2     1    12    1
     3     9     2    1
     4     2    40    1
     5     3    18    2
     6     4    22    1
     7     4    24    1
     8     5    23    1
     9     5    24    1
    10     6     7    1
    11     6    15    1
    12     6    19    1
    13     7     8    1
    14     7     9    1
    15     7    10    1
    16     8    11    1
    17     8    13    1
    18     8    14    1
    19     9    18    1
    20    10    12    1
    21    10    25    1
    22    10    26    1
    23    11    15    1
    24    11    27    1
    25    11    28    1
    26    12    16    1
    27    12    29    1
    28    13    17    1
    29    13    30    1
    30    13    31    1
    31    14    16   ar
    32    14    20   ar
    33    15    32    1
    34    15    33    1
    35    16    21   ar
    36    17    18    1
    37    17    34    1
    38    17    35    1
    39    19    36    1
    40    19    37    1
    41    19    38    1
    42    20    22   ar
    43    20    39    1
    44    21    23   ar
    45    21    41    1
    46    22    23   ar
    47    24    42    1
    48    24    43    1
