@<TRIPOS>MOLECULE
IMPHY013388
 74 78 0 0 0
SMALL
GASTEIGER

@<TRIPOS>ATOM
      1 O           6.8671   -3.3762    0.0000 O.3     1  UNL1       -0.3366
      2 O           5.1350   -1.3762    0.0000 O.3     1  UNL1       -0.3313
      3 O           6.0010   -4.8762    0.0000 O.3     1  UNL1       -0.3431
      4 O           5.1350   -4.3762    0.0000 O.3     1  UNL1       -0.3863
      5 O           6.8671   -1.3762    0.0000 O.3     1  UNL1       -0.4570
      6 O           3.4030   -3.3762    0.0000 O.3     1  UNL1       -0.3865
      7 O           8.5991   -4.3762    0.0000 O.3     1  UNL1       -0.3841
      8 O           8.5991   -6.3762    0.0000 O.3     1  UNL1       -0.3864
      9 O           6.8671   -7.3762    0.0000 O.3     1  UNL1       -0.3866
     10 O           2.5369   -1.8762    0.0000 O.3     1  UNL1       -0.3924
     11 O           8.6370   -0.3453    0.0000 O.3     1  UNL1       -0.5009
     12 O           8.6230    1.6863    0.0000 O.2     1  UNL1       -0.4583
     13 O           6.0308    3.1963    0.0000 O.2     1  UNL1       -0.2864
     14 O           7.7782    7.1896    0.0000 O.3     1  UNL1       -0.4951
     15 C           6.0010   -2.8762    0.0000 C.3     1  UNL1        0.1519
     16 C           5.1350   -3.3762    0.0000 C.3     1  UNL1        0.1155
     17 C           4.2690   -2.8762    0.0000 C.3     1  UNL1        0.1120
     18 C           6.8671   -4.3762    0.0000 C.3     1  UNL1        0.1885
     19 C           7.7331   -4.8762    0.0000 C.3     1  UNL1        0.1341
     20 C           6.0010   -1.8762    0.0000 C.3     1  UNL1        0.2313
     21 C           4.2690   -1.8762    0.0000 C.3     1  UNL1        0.1140
     22 C           7.7331   -5.8762    0.0000 C.3     1  UNL1        0.1140
     23 C           6.8671   -6.3762    0.0000 C.3     1  UNL1        0.1095
     24 C           6.0010   -5.8762    0.0000 C.3     1  UNL1        0.0873
     25 C           3.4030   -1.3762    0.0000 C.3     1  UNL1        0.0731
     26 C           5.1350   -6.3762    0.0000 C.3     1  UNL1       -0.0361
     27 C           6.8671   -0.3762    0.0000 C.ar    1  UNL1        0.1689
     28 C           7.7671    0.1481    0.0000 C.ar    1  UNL1        0.2025
     29 C           5.9670    0.1481    0.0000 C.ar    1  UNL1       -0.0153
     30 C           7.7551    1.1896    0.0000 C.ar    1  UNL1        0.1832
     31 C           5.9790    1.1896    0.0000 C.ar    1  UNL1       -0.0437
     32 C           6.8910    1.6930    0.0000 C.ar    1  UNL1        0.0684
     33 C           6.8948    2.6930    0.0000 C.ar    1  UNL1        0.2003
     34 C           7.7628    3.1896    0.0000 C.ar    1  UNL1        0.0643
     35 C           8.6269    2.6863    0.0000 C.ar    1  UNL1        0.1040
     36 C           7.7666    4.1896    0.0000 C.ar    1  UNL1       -0.0110
     37 C           6.9026    4.6929    0.0000 C.ar    1  UNL1       -0.0504
     38 C           8.6346    4.6862    0.0000 C.ar    1  UNL1       -0.0504
     39 C           6.9064    5.6929    0.0000 C.ar    1  UNL1       -0.0194
     40 C           8.6384    5.6862    0.0000 C.ar    1  UNL1       -0.0194
     41 C           7.7744    6.1896    0.0000 C.ar    1  UNL1        0.1201
     42 C           8.6462    7.6862    0.0000 C.3     1  UNL1        0.0788
     43 H           6.0010   -3.4962    0.0000 H       1  UNL1        0.0687
     44 H           4.5981   -3.6862    0.0000 H       1  UNL1        0.0648
     45 H           4.2690   -3.4962    0.0000 H       1  UNL1        0.0647
     46 H           7.4040   -4.0662    0.0000 H       1  UNL1        0.0938
     47 H           8.2700   -5.1862    0.0000 H       1  UNL1        0.0671
     48 H           6.0010   -1.2562    0.0000 H       1  UNL1        0.1084
     49 H           4.2690   -1.2562    0.0000 H       1  UNL1        0.0647
     50 H           7.7331   -6.4962    0.0000 H       1  UNL1        0.0648
     51 H           7.4040   -6.6862    0.0000 H       1  UNL1        0.0646
     52 H           5.4641   -5.5662    0.0000 H       1  UNL1        0.0621
     53 H           3.8015   -0.9013    0.0000 H       1  UNL1        0.0584
     54 H           3.0044   -0.9013    0.0000 H       1  UNL1        0.0584
     55 H           4.8250   -5.8393    0.0000 H       1  UNL1        0.0255
     56 H           4.5981   -6.6862    0.0000 H       1  UNL1        0.0255
     57 H           5.4450   -6.9132    0.0000 H       1  UNL1        0.0255
     58 H           4.5981   -4.6862    0.0000 H       1  UNL1        0.2100
     59 H           3.4030   -3.9962    0.0000 H       1  UNL1        0.2100
     60 H           9.1360   -4.6862    0.0000 H       1  UNL1        0.2101
     61 H           8.5991   -6.9962    0.0000 H       1  UNL1        0.2100
     62 H           7.4040   -7.6862    0.0000 H       1  UNL1        0.2100
     63 H           2.0000   -1.5662    0.0000 H       1  UNL1        0.2095
     64 H           5.4277   -0.1578    0.0000 H       1  UNL1        0.0655
     65 H           5.4470    1.5079    0.0000 H       1  UNL1        0.0627
     66 H           9.1715   -0.0311    0.0000 H       1  UNL1        0.2924
     67 H           9.1650    2.9942    0.0000 H       1  UNL1        0.1037
     68 H           6.3644    4.3850    0.0000 H       1  UNL1        0.0625
     69 H           9.1703    4.3742    0.0000 H       1  UNL1        0.0625
     70 H           6.3707    6.0050    0.0000 H       1  UNL1        0.0654
     71 H           9.1766    5.9942    0.0000 H       1  UNL1        0.0654
     72 H           8.9541    7.1481    0.0000 H       1  UNL1        0.0660
     73 H           9.1843    7.9942    0.0000 H       1  UNL1        0.0660
     74 H           8.3382    8.2244    0.0000 H       1  UNL1        0.0660
@<TRIPOS>BOND
     1     1    15    1
     2    18     1    1
     3     2    20    1
     4     2    21    1
     5     3    18    1
     6     3    24    1
     7    16     4    1
     8     4    58    1
     9    20     5    1
    10     5    27    1
    11    17     6    1
    12     6    59    1
    13     7    19    1
    14     7    60    1
    15    22     8    1
    16     8    61    1
    17    23     9    1
    18     9    62    1
    19    10    25    1
    20    10    63    1
    21    11    28    1
    22    11    66    1
    23    12    30   ar
    24    12    35   ar
    25    13    33    2
    26    14    41    1
    27    14    42    1
    28    15    16    1
    29    15    20    1
    30    15    43    1
    31    16    17    1
    32    16    44    1
    33    17    21    1
    34    17    45    1
    35    18    19    1
    36    18    46    1
    37    19    22    1
    38    19    47    1
    39    20    48    1
    40    21    25    1
    41    21    49    1
    42    22    23    1
    43    22    50    1
    44    23    24    1
    45    23    51    1
    46    24    26    1
    47    24    52    1
    48    25    53    1
    49    25    54    1
    50    26    55    1
    51    26    56    1
    52    26    57    1
    53    27    28   ar
    54    27    29   ar
    55    28    30   ar
    56    29    31   ar
    57    29    64    1
    58    30    32   ar
    59    31    32   ar
    60    31    65    1
    61    32    33   ar
    62    33    34   ar
    63    34    35   ar
    64    34    36    1
    65    35    67    1
    66    36    37   ar
    67    36    38   ar
    68    37    39   ar
    69    37    68    1
    70    38    40   ar
    71    38    69    1
    72    39    41   ar
    73    39    70    1
    74    40    41   ar
    75    40    71    1
    76    42    72    1
    77    42    73    1
    78    42    74    1
