@<TRIPOS>MOLECULE
IMPHY009529
 39 38 0 0 0
SMALL
GASTEIGER

@<TRIPOS>ATOM
      1 O           8.5991    1.6550    0.0000 O.3     1  UNL1       -0.3884
      2 O           5.1350    1.6550    0.0000 O.3     1  UNL1       -0.3874
      3 O           4.2690   -0.8450    0.0000 O.3     1  UNL1       -0.3783
      4 O           8.5991   -1.3450    0.0000 O.3     1  UNL1       -0.4795
      5 OXT         6.8671   -1.3450    0.0000 O.2     1  UNL1       -0.2491
      6 O           2.5369    0.1550    0.0000 O.3     1  UNL1       -0.4788
      7 O           3.4030    1.6550    0.0000 O.2     1  UNL1       -0.2480
      8 O          12.9292    0.1550    0.0000 O.3     1  UNL1       -0.4797
      9 O          12.0632    1.6550    0.0000 O.2     1  UNL1       -0.2496
     10 N           6.8671    0.6550    0.0000 N.3     1  UNL1       -0.2995
     11 N          10.3312    0.6550    0.0000 N.3     1  UNL1       -0.3041
     12 CA          7.7331    0.1550    0.0000 C.3     1  UNL1        0.1331
     13 C           8.5991    0.6550    0.0000 C.3     1  UNL1        0.0933
     14 C           6.0010    0.1550    0.0000 C.3     1  UNL1        0.0257
     15 C           5.1350    0.6550    0.0000 C.3     1  UNL1        0.1039
     16 C           9.4651    0.1550    0.0000 C.3     1  UNL1        0.0245
     17 C           4.2690    0.1550    0.0000 C.3     1  UNL1        0.1785
     18 C           7.7331   -0.8450    0.0000 C.2     1  UNL1        0.3245
     19 C          11.1972    0.1550    0.0000 C.3     1  UNL1        0.0943
     20 C           3.4030    0.6550    0.0000 C.2     1  UNL1        0.3363
     21 C          12.0632    0.6550    0.0000 C.2     1  UNL1        0.3187
     22 HA          7.7331    0.7750    0.0000 H       1  UNL1        0.0603
     23 H           9.1360    0.9650    0.0000 H       1  UNL1        0.0627
     24 H           5.6025   -0.3199    0.0000 H       1  UNL1        0.0450
     25 H           6.3996   -0.3199    0.0000 H       1  UNL1        0.0450
     26 H           6.8671    1.2750    0.0000 H       1  UNL1        0.1229
     27 H           5.8711    1.0800    0.0000 H       1  UNL1        0.0637
     28 H           9.0666   -0.3199    0.0000 H       1  UNL1        0.0450
     29 H           9.8637   -0.3199    0.0000 H       1  UNL1        0.0450
     30 H           5.0051   -0.2700    0.0000 H       1  UNL1        0.0737
     31 H          10.3312    1.2750    0.0000 H       1  UNL1        0.1225
     32 H           9.1360    1.9650    0.0000 H       1  UNL1        0.2099
     33 H          10.7987   -0.3199    0.0000 H       1  UNL1        0.0539
     34 H          11.5957   -0.3199    0.0000 H       1  UNL1        0.0539
     35 H           4.5981    1.9650    0.0000 H       1  UNL1        0.2100
     36 H           3.7320   -1.1550    0.0000 H       1  UNL1        0.2106
     37 H           8.5991   -1.9650    0.0000 H       1  UNL1        0.2951
     38 H           2.0000    0.4650    0.0000 H       1  UNL1        0.2951
     39 H          13.4662    0.4650    0.0000 H       1  UNL1        0.2951
@<TRIPOS>BOND
     1    13     1    1
     2     1    32    1
     3     2    15    1
     4     2    35    1
     5     3    17    1
     6     3    36    1
     7     4    18    1
     8     4    37    1
     9     5    18    2
    10     6    20    1
    11     6    38    1
    12     7    20    2
    13     8    21    1
    14     8    39    1
    15     9    21    2
    16    12    10    1
    17    10    14    1
    18    10    26    1
    19    11    16    1
    20    11    19    1
    21    11    31    1
    22    12    13    1
    23    12    18    1
    24    12    22    1
    25    13    16    1
    26    13    23    1
    27    14    15    1
    28    14    24    1
    29    14    25    1
    30    15    17    1
    31    15    27    1
    32    16    28    1
    33    16    29    1
    34    17    20    1
    35    17    30    1
    36    19    21    1
    37    19    33    1
    38    19    34    1
