@<TRIPOS>MOLECULE
IMPHY001996
 18 19 0 0 0
SMALL
GASTEIGER

@<TRIPOS>ATOM
      1 O           2.0000   -0.6900    0.0000 O.2     1  UNL1       -0.2878
      2 N           5.4920   -0.7247    0.0000 N.ar    1  UNL1       -0.3606
      3 C           4.5981   -0.1900    0.0000 C.ar    1  UNL1        0.0501
      4 C           4.5981    0.8100    0.0000 C.ar    1  UNL1       -0.0014
      5 C           3.7320   -0.6900    0.0000 C.ar    1  UNL1        0.0090
      6 C           3.7320    1.3100    0.0000 C.ar    1  UNL1       -0.0490
      7 C           5.4920    1.3446    0.0000 C.ar    1  UNL1       -0.0513
      8 C           2.8660   -0.1900    0.0000 C.ar    1  UNL1        0.1810
      9 C           2.8660    0.8100    0.0000 C.ar    1  UNL1       -0.0143
     10 C           6.3981   -0.2108    0.0000 C.ar    1  UNL1        0.0021
     11 C           6.3981    0.8308    0.0000 C.ar    1  UNL1       -0.0452
     12 H           3.7320   -1.3100    0.0000 H       1  UNL1        0.0676
     13 H           3.7320    1.9300    0.0000 H       1  UNL1        0.0625
     14 H           5.4848   -1.3446    0.0000 H       1  UNL1        0.1653
     15 H           5.4848    1.9646    0.0000 H       1  UNL1        0.0625
     16 H           2.3291    1.1200    0.0000 H       1  UNL1        0.0656
     17 H           6.9338   -0.5229    0.0000 H       1  UNL1        0.0807
     18 H           6.9338    1.1429    0.0000 H       1  UNL1        0.0632
@<TRIPOS>BOND
     1     1     8    2
     2     2     3   ar
     3     2    10   ar
     4     2    14    1
     5     3     4    1
     6     3     5   ar
     7     4     6   ar
     8     4     7   ar
     9     5     8   ar
    10     5    12    1
    11     6     9   ar
    12     6    13    1
    13     7    11   ar
    14     7    15    1
    15     8     9   ar
    16     9    16    1
    17    10    11   ar
    18    10    17    1
    19    11    18    1
