@<TRIPOS>MOLECULE
IMPHY016284
 23 22 0 0 0
SMALL
GASTEIGER

@<TRIPOS>ATOM
      1 O           5.4641    0.7500    0.0000 O.3     1  UNL1       -0.4618
      2 O           6.3301   -0.7500    0.0000 O.2     1  UNL1       -0.2512
      3 C           3.7320    0.7500    0.0000 C.3     1  UNL1       -0.0162
      4 C           4.5981    0.2500    0.0000 C.3     1  UNL1        0.1003
      5 C           2.8660    0.2500    0.0000 C.3     1  UNL1       -0.0526
      6 C           4.5981   -0.7500    0.0000 C.3     1  UNL1       -0.0277
      7 C           2.0000    0.7500    0.0000 C.3     1  UNL1       -0.0652
      8 C           6.3301    0.2500    0.0000 C.2     1  UNL1        0.3042
      9 C           7.1962    0.7500    0.0000 C.3     1  UNL1        0.0332
     10 H           4.1306    1.2250    0.0000 H       1  UNL1        0.0301
     11 H           3.3335    1.2250    0.0000 H       1  UNL1        0.0301
     12 H           4.5981    0.8700    0.0000 H       1  UNL1        0.0731
     13 H           2.4675   -0.2249    0.0000 H       1  UNL1        0.0264
     14 H           3.2646   -0.2249    0.0000 H       1  UNL1        0.0264
     15 H           3.9781   -0.7500    0.0000 H       1  UNL1        0.0265
     16 H           4.5981   -1.3700    0.0000 H       1  UNL1        0.0265
     17 H           5.2181   -0.7500    0.0000 H       1  UNL1        0.0265
     18 H           2.3100    1.2869    0.0000 H       1  UNL1        0.0230
     19 H           1.4631    1.0600    0.0000 H       1  UNL1        0.0230
     20 H           1.6900    0.2131    0.0000 H       1  UNL1        0.0230
     21 H           7.5062    0.2131    0.0000 H       1  UNL1        0.0342
     22 H           7.7331    1.0600    0.0000 H       1  UNL1        0.0342
     23 H           6.8862    1.2869    0.0000 H       1  UNL1        0.0342
@<TRIPOS>BOND
     1     1     4    1
     2     1     8    1
     3     2     8    2
     4     3     4    1
     5     3     5    1
     6     3    10    1
     7     3    11    1
     8     4     6    1
     9     4    12    1
    10     5     7    1
    11     5    13    1
    12     5    14    1
    13     6    15    1
    14     6    16    1
    15     6    17    1
    16     7    18    1
    17     7    19    1
    18     7    20    1
    19     8     9    1
    20     9    21    1
    21     9    22    1
    22     9    23    1
