@<TRIPOS>MOLECULE
IMPHY010827
 100 106 0 0 0
SMALL
GASTEIGER

@<TRIPOS>ATOM
      1 O           7.9632   -1.0616    0.0000 O.3     1  UNL1       -0.3281
      2 O           8.3746    1.6634    0.0000 O.3     1  UNL1       -0.4545
      3 O           5.5048    0.1839    0.0000 O.3     1  UNL1       -0.4476
      4 O           8.1497   -0.6770    0.0000 O.3     1  UNL1       -0.4500
      5 O           6.4650   -1.9084    0.0000 O.3     1  UNL1       -0.4275
      6 O           5.0764    4.7331    0.0000 O.3     1  UNL1       -0.4199
      7 O          10.1059    0.4794    0.0000 O.3     1  UNL1       -0.4584
      8 O           7.3282    4.9653    0.0000 O.3     1  UNL1       -0.3799
      9 O           9.0114    2.8748    0.0000 O.2     1  UNL1       -0.2505
     10 O           3.9798    0.6714    0.0000 O.2     1  UNL1       -0.2449
     11 O           6.3368    5.9220    0.0000 O.2     1  UNL1       -0.2475
     12 O           3.3321    4.6493    0.0000 O.3     1  UNL1       -0.5009
     13 O           8.5463    5.6266    0.0000 O.3     1  UNL1       -0.4806
     14 O           2.3079    2.8754    0.0000 O.3     1  UNL1       -0.5032
     15 O           9.3643    4.0999    0.0000 O.2     1  UNL1       -0.2510
     16 O           7.5615   -2.5171    0.0000 O.2     1  UNL1       -0.2449
     17 O           4.9610   -1.0494    0.0000 O.2     1  UNL1       -0.2449
     18 O          11.5120   -0.5319    0.0000 O.2     1  UNL1       -0.2450
     19 O           9.6895   -4.7549    0.0000 O.3     1  UNL1       -0.5032
     20 O          11.5623   -1.8407    0.0000 O.3     1  UNL1       -0.5032
     21 O          11.4671   -3.8385    0.0000 O.3     1  UNL1       -0.5009
     22 O           2.4732   -3.6592    0.0000 O.3     1  UNL1       -0.5032
     23 O           5.4813   -5.3772    0.0000 O.3     1  UNL1       -0.5032
     24 O           3.4813   -5.3866    0.0000 O.3     1  UNL1       -0.5009
     25 O          11.4463    3.8265    0.0000 O.3     1  UNL1       -0.5032
     26 O          14.2586    1.8039    0.0000 O.3     1  UNL1       -0.5032
     27 O          13.4364    3.6271    0.0000 O.3     1  UNL1       -0.5009
     28 C           8.1388    0.6915    0.0000 C.3     1  UNL1        0.1727
     29 C           7.4151    0.0015    0.0000 C.3     1  UNL1        0.1851
     30 C           6.4332   -0.1878    0.0000 C.3     1  UNL1        0.2053
     31 C           8.5270   -0.2327    0.0000 C.3     1  UNL1        0.1371
     32 C           6.2660    3.3216    0.0000 C.3     1  UNL1        0.0384
     33 C           7.2615    3.2265    0.0000 C.3     1  UNL1        0.0762
     34 C           6.9609   -1.0401    0.0000 C.3     1  UNL1        0.2465
     35 C           5.3772    2.8633    0.0000 C.ar    1  UNL1        0.0197
     36 C           6.6614    4.2200    0.0000 C.3     1  UNL1        0.1596
     37 C           9.5220   -0.3324    0.0000 C.3     1  UNL1        0.1226
     38 C           8.0475    2.6084    0.0000 C.2     1  UNL1        0.3119
     39 C           7.6332    4.1549    0.0000 C.3     1  UNL1        0.0583
     40 C           4.8772    1.9973    0.0000 C.ar    1  UNL1        0.0697
     41 C           4.8703    3.7734    0.0000 C.ar    1  UNL1        0.1809
     42 C           4.9248    0.9985    0.0000 C.2     1  UNL1        0.3403
     43 C           6.0288    4.9706    0.0000 C.2     1  UNL1        0.3420
     44 C           3.8357    1.9813    0.0000 C.ar    1  UNL1       -0.0020
     45 C           3.8287    3.7814    0.0000 C.ar    1  UNL1        0.2019
     46 C           8.5146    4.6272    0.0000 C.2     1  UNL1        0.3055
     47 C           3.3079    2.8793    0.0000 C.ar    1  UNL1        0.1628
     48 C           8.1022   -1.6759    0.0000 C.2     1  UNL1        0.3399
     49 C           5.4650   -1.9131    0.0000 C.2     1  UNL1        0.3417
     50 C           8.9434   -2.2165    0.0000 C.ar    1  UNL1        0.0661
     51 C          11.1009    0.3797    0.0000 C.2     1  UNL1        0.3395
     52 C           4.9691   -2.7815    0.0000 C.ar    1  UNL1        0.0662
     53 C          11.6847    1.1915    0.0000 C.ar    1  UNL1        0.0661
     54 C           9.8322   -1.7583    0.0000 C.ar    1  UNL1       -0.0023
     55 C           8.8958   -3.2154    0.0000 C.ar    1  UNL1       -0.0023
     56 C           5.4731   -3.6451    0.0000 C.ar    1  UNL1       -0.0023
     57 C           3.9691   -2.7862    0.0000 C.ar    1  UNL1       -0.0023
     58 C           9.7370   -3.7561    0.0000 C.ar    1  UNL1        0.1628
     59 C          10.6735   -2.2990    0.0000 C.ar    1  UNL1        0.1628
     60 C          12.6798    1.0918    0.0000 C.ar    1  UNL1       -0.0023
     61 C          11.2736    2.1031    0.0000 C.ar    1  UNL1       -0.0023
     62 C          10.6259   -3.2978    0.0000 C.ar    1  UNL1        0.2006
     63 C           3.4732   -3.6545    0.0000 C.ar    1  UNL1        0.1628
     64 C           4.9772   -4.5135    0.0000 C.ar    1  UNL1        0.1628
     65 C           3.9772   -4.5182    0.0000 C.ar    1  UNL1        0.2006
     66 C          11.8575    2.9149    0.0000 C.ar    1  UNL1        0.1628
     67 C          13.2636    1.9036    0.0000 C.ar    1  UNL1        0.1628
     68 C          12.8525    2.8152    0.0000 C.ar    1  UNL1        0.2006
     69 H           7.4027    1.1165    0.0000 H       1  UNL1        0.0801
     70 H           7.2452   -0.5948    0.0000 H       1  UNL1        0.0813
     71 H           5.8865   -0.8387    0.0000 H       1  UNL1        0.0837
     72 H           8.7892   -0.7945    0.0000 H       1  UNL1        0.0670
     73 H           7.0215    3.7111    0.0000 H       1  UNL1        0.0389
     74 H           7.8604    3.3870    0.0000 H       1  UNL1        0.0426
     75 H           7.2664   -1.5796    0.0000 H       1  UNL1        0.1098
     76 H           7.1827    3.8843    0.0000 H       1  UNL1        0.0717
     77 H           9.3540   -0.9292    0.0000 H       1  UNL1        0.0725
     78 H          10.0805   -0.6015    0.0000 H       1  UNL1        0.0725
     79 H           7.5094    4.7624    0.0000 H       1  UNL1        0.0386
     80 H           7.0157    4.2105    0.0000 H       1  UNL1        0.0386
     81 H           3.5319    1.4408    0.0000 H       1  UNL1        0.0663
     82 H           7.1347    5.5544    0.0000 H       1  UNL1        0.2105
     83 H           2.7121    4.6517    0.0000 H       1  UNL1        0.2924
     84 H           9.0928    5.9195    0.0000 H       1  UNL1        0.2951
     85 H           2.0000    2.3373    0.0000 H       1  UNL1        0.2923
     86 H           9.8617   -1.1390    0.0000 H       1  UNL1        0.0663
     87 H           8.3447   -3.4995    0.0000 H       1  UNL1        0.0663
     88 H           6.0931   -3.6422    0.0000 H       1  UNL1        0.0663
     89 H           3.6566   -2.2507    0.0000 H       1  UNL1        0.0663
     90 H          12.9347    0.5266    0.0000 H       1  UNL1        0.0663
     91 H          10.6567    2.1649    0.0000 H       1  UNL1        0.0663
     92 H          10.2110   -5.0901    0.0000 H       1  UNL1        0.2923
     93 H          12.0839   -2.1759    0.0000 H       1  UNL1        0.2923
     94 H          11.4376   -4.4578    0.0000 H       1  UNL1        0.2924
     95 H           2.1657   -4.1976    0.0000 H       1  UNL1        0.2923
     96 H           6.1013   -5.3743    0.0000 H       1  UNL1        0.2923
     97 H           3.7938   -5.9220    0.0000 H       1  UNL1        0.2924
     98 H          11.8083    4.3299    0.0000 H       1  UNL1        0.2923
     99 H          14.5136    1.2388    0.0000 H       1  UNL1        0.2923
    100 H          14.0533    3.5652    0.0000 H       1  UNL1        0.2924
@<TRIPOS>BOND
     1     1    31    1
     2     1    34    1
     3     2    28    1
     4     2    38    1
     5     3    30    1
     6     3    42    1
     7    29     4    1
     8     4    48    1
     9    34     5    1
    10     5    49    1
    11     6    41    1
    12     6    43    1
    13     7    37    1
    14     7    51    1
    15    36     8    1
    16     8    82    1
    17     9    38    2
    18    10    42    2
    19    11    43    2
    20    12    45    1
    21    12    83    1
    22    13    46    1
    23    13    84    1
    24    14    47    1
    25    14    85    1
    26    15    46    2
    27    16    48    2
    28    17    49    2
    29    18    51    2
    30    19    58    1
    31    19    92    1
    32    20    59    1
    33    20    93    1
    34    21    62    1
    35    21    94    1
    36    22    63    1
    37    22    95    1
    38    23    64    1
    39    23    96    1
    40    24    65    1
    41    24    97    1
    42    25    66    1
    43    25    98    1
    44    26    67    1
    45    26    99    1
    46    27    68    1
    47    27   100    1
    48    28    29    1
    49    28    31    1
    50    28    69    1
    51    29    30    1
    52    29    70    1
    53    30    34    1
    54    30    71    1
    55    31    37    1
    56    31    72    1
    57    32    33    1
    58    32    35    1
    59    32    36    1
    60    32    73    1
    61    33    38    1
    62    33    39    1
    63    33    74    1
    64    34    75    1
    65    35    40   ar
    66    35    41   ar
    67    36    43    1
    68    36    76    1
    69    37    77    1
    70    37    78    1
    71    39    46    1
    72    39    79    1
    73    39    80    1
    74    40    42    1
    75    40    44   ar
    76    41    45   ar
    77    44    47   ar
    78    44    81    1
    79    45    47   ar
    80    48    50    1
    81    49    52    1
    82    50    54   ar
    83    50    55   ar
    84    51    53    1
    85    52    56   ar
    86    52    57   ar
    87    53    60   ar
    88    53    61   ar
    89    54    59   ar
    90    54    86    1
    91    55    58   ar
    92    55    87    1
    93    56    64   ar
    94    56    88    1
    95    57    63   ar
    96    57    89    1
    97    58    62   ar
    98    59    62   ar
    99    60    67   ar
   100    60    90    1
   101    61    66   ar
   102    61    91    1
   103    63    65   ar
   104    64    65   ar
   105    66    68   ar
   106    67    68   ar
