@<TRIPOS>MOLECULE
IMPHY008002
 70 72 0 0 0
SMALL
GASTEIGER

@<TRIPOS>ATOM
      1 O           6.0682   -1.8518    0.0000 O.2     1  UNL1       -0.4539
      2 O           9.5984    0.1723    0.0000 O.3     1  UNL1       -0.4912
      3 O           6.0682    1.1482    0.0000 O.2     1  UNL1       -0.2863
      4 O           4.3198    1.1827    0.0000 O.3     1  UNL1       -0.5058
      5 O           9.5984   -1.8760    0.0000 O.3     1  UNL1       -0.5032
      6 O           2.5381   -1.8760    0.0000 O.3     1  UNL1       -0.5062
      7 O           2.6226   -5.9063    0.0000 O.3     1  UNL1       -0.3907
      8 C           6.9343   -0.3519    0.0000 C.ar    1  UNL1        0.0719
      9 C           7.8282    0.1828    0.0000 C.ar    1  UNL1        0.0160
     10 C           5.2022   -0.3519    0.0000 C.ar    1  UNL1        0.1064
     11 C           5.2022   -1.3518    0.0000 C.ar    1  UNL1        0.1497
     12 C           6.9343   -1.3518    0.0000 C.ar    1  UNL1        0.1432
     13 C           7.8167    1.1827    0.0000 C.3     1  UNL1       -0.0049
     14 C           6.0682    0.1481    0.0000 C.ar    1  UNL1        0.2041
     15 C           4.3083   -1.8865    0.0000 C.ar    1  UNL1        0.0409
     16 C           8.7343   -0.3310    0.0000 C.ar    1  UNL1        0.1656
     17 C           7.8282   -1.8865    0.0000 C.ar    1  UNL1        0.0265
     18 C           4.3083    0.1828    0.0000 C.ar    1  UNL1        0.1347
     19 C           4.3198   -2.8864    0.0000 C.3     1  UNL1       -0.0022
     20 C           8.7343   -1.3727    0.0000 C.ar    1  UNL1        0.1623
     21 C           8.6768    1.6927    0.0000 C.2     1  UNL1       -0.0806
     22 C           3.4022   -1.3727    0.0000 C.ar    1  UNL1        0.1273
     23 C           8.6653    2.6927    0.0000 C.2     1  UNL1       -0.0759
     24 C           9.5255    3.2026    0.0000 C.3     1  UNL1       -0.0286
     25 C           3.4022   -0.3310    0.0000 C.ar    1  UNL1        0.0225
     26 C           9.5139    4.2026    0.0000 C.3     1  UNL1       -0.0308
     27 C           3.4597   -3.3964    0.0000 C.2     1  UNL1       -0.0783
     28 C           7.7935    3.1826    0.0000 C.3     1  UNL1       -0.0438
     29 C           3.4712   -4.3964    0.0000 C.2     1  UNL1       -0.0512
     30 C          10.3741    4.7126    0.0000 C.2     1  UNL1       -0.0850
     31 C          10.4663   -0.3244    0.0000 C.3     1  UNL1        0.0790
     32 C          10.3625    5.7125    0.0000 C.2     1  UNL1       -0.0796
     33 C           2.6110   -4.9063    0.0000 C.3     1  UNL1        0.0651
     34 C           4.3430   -4.8863    0.0000 C.3     1  UNL1       -0.0416
     35 C          11.2227    6.2225    0.0000 C.3     1  UNL1       -0.0440
     36 C           9.4908    6.2024    0.0000 C.3     1  UNL1       -0.0440
     37 H           7.5979    1.7629    0.0000 H       1  UNL1        0.0357
     38 H           7.2074    1.0680    0.0000 H       1  UNL1        0.0357
     39 H           7.8210   -2.5065    0.0000 H       1  UNL1        0.0692
     40 H           4.5386   -3.4666    0.0000 H       1  UNL1        0.0358
     41 H           4.9291   -2.7717    0.0000 H       1  UNL1        0.0358
     42 H           9.2173    1.3889    0.0000 H       1  UNL1        0.0575
     43 H           9.7442    2.6225    0.0000 H       1  UNL1        0.0313
     44 H          10.1348    3.3174    0.0000 H       1  UNL1        0.0313
     45 H           2.8665   -0.0190    0.0000 H       1  UNL1        0.0691
     46 H           9.2951    4.7827    0.0000 H       1  UNL1        0.0310
     47 H           8.9046    4.0879    0.0000 H       1  UNL1        0.0310
     48 H           2.9192   -3.0927    0.0000 H       1  UNL1        0.0576
     49 H           8.0973    3.7231    0.0000 H       1  UNL1        0.0274
     50 H           7.2530    3.4864    0.0000 H       1  UNL1        0.0274
     51 H           7.4898    2.6421    0.0000 H       1  UNL1        0.0274
     52 H          10.9146    4.4088    0.0000 H       1  UNL1        0.0572
     53 H           3.7865    1.4989    0.0000 H       1  UNL1        0.2922
     54 H           9.5960   -2.4960    0.0000 H       1  UNL1        0.2923
     55 H           2.0000   -1.5681    0.0000 H       1  UNL1        0.2921
     56 H          10.1584   -0.8625    0.0000 H       1  UNL1        0.0660
     57 H          11.0045   -0.6323    0.0000 H       1  UNL1        0.0660
     58 H          10.7743    0.2138    0.0000 H       1  UNL1        0.0660
     59 H           2.3923   -4.3262    0.0000 H       1  UNL1        0.0604
     60 H           2.0017   -5.0211    0.0000 H       1  UNL1        0.0604
     61 H           4.0392   -5.4268    0.0000 H       1  UNL1        0.0275
     62 H           4.8835   -5.1901    0.0000 H       1  UNL1        0.0275
     63 H           4.6468   -4.3458    0.0000 H       1  UNL1        0.0275
     64 H           9.7945    6.7429    0.0000 H       1  UNL1        0.0274
     65 H          11.5389    5.6892    0.0000 H       1  UNL1        0.0274
     66 H          11.7560    6.5386    0.0000 H       1  UNL1        0.0274
     67 H          10.9065    6.7558    0.0000 H       1  UNL1        0.0274
     68 H           8.9503    6.5062    0.0000 H       1  UNL1        0.0274
     69 H           9.1870    5.6620    0.0000 H       1  UNL1        0.0274
     70 H           2.0893   -6.2225    0.0000 H       1  UNL1        0.2098
@<TRIPOS>BOND
     1     1    11   ar
     2     1    12   ar
     3     2    16    1
     4     2    31    1
     5     3    14    2
     6     4    18    1
     7     4    53    1
     8     5    20    1
     9     5    54    1
    10     6    22    1
    11     6    55    1
    12     7    33    1
    13     7    70    1
    14     8     9   ar
    15     8    12   ar
    16     8    14   ar
    17     9    13    1
    18     9    16   ar
    19    10    11   ar
    20    10    14   ar
    21    10    18   ar
    22    11    15   ar
    23    12    17   ar
    24    13    21    1
    25    13    37    1
    26    13    38    1
    27    15    19    1
    28    15    22   ar
    29    16    20   ar
    30    17    20   ar
    31    17    39    1
    32    18    25   ar
    33    19    27    1
    34    19    40    1
    35    19    41    1
    36    21    23    2
    37    21    42    1
    38    22    25   ar
    39    23    24    1
    40    23    28    1
    41    24    26    1
    42    24    43    1
    43    24    44    1
    44    25    45    1
    45    26    30    1
    46    26    46    1
    47    26    47    1
    48    27    29    2
    49    27    48    1
    50    28    49    1
    51    28    50    1
    52    28    51    1
    53    29    33    1
    54    29    34    1
    55    30    32    2
    56    30    52    1
    57    31    56    1
    58    31    57    1
    59    31    58    1
    60    32    35    1
    61    32    36    1
    62    33    59    1
    63    33    60    1
    64    34    61    1
    65    34    62    1
    66    34    63    1
    67    35    65    1
    68    35    66    1
    69    35    67    1
    70    36    64    1
    71    36    68    1
    72    36    69    1
