@<TRIPOS>MOLECULE
IMPHY003086
 42 44 0 0 0
SMALL
GASTEIGER

@<TRIPOS>ATOM
      1 O           3.7230   -1.6446    0.0000 O.3     1  UNL1       -0.4598
      2 O           4.5447    1.5207    0.0000 O.3     1  UNL1       -0.4608
      3 O           2.0000   -1.2125    0.0000 O.2     1  UNL1       -0.2505
      4 O           8.0559   -1.7248    0.0000 O.2     1  UNL1       -0.2876
      5 O           6.1053    2.2722    0.0000 O.2     1  UNL1       -0.2512
      6 C           4.3551   -0.1621    0.0000 C.3     1  UNL1        0.0470
      7 C           4.5777   -1.1370    0.0000 C.3     1  UNL1        0.1205
      8 C           5.4786   -1.5709    0.0000 C.3     1  UNL1        0.0464
      9 C           3.3648   -0.0755    0.0000 C.3     1  UNL1        0.0632
     10 C           4.9786    0.6198    0.0000 C.3     1  UNL1        0.1137
     11 C           6.3796   -1.1370    0.0000 C.2     1  UNL1        0.0090
     12 C           5.9786    0.6198    0.0000 C.3     1  UNL1        0.0064
     13 C           6.6021   -0.1621    0.0000 C.2     1  UNL1       -0.0616
     14 C           5.6146   -2.5556    0.0000 C.2     1  UNL1       -0.0580
     15 C           2.9749   -0.9900    0.0000 C.2     1  UNL1        0.3107
     16 C           2.8504    0.7820    0.0000 C.3     1  UNL1       -0.0518
     17 C           7.0647   -1.8573    0.0000 C.2     1  UNL1        0.1827
     18 C           6.5929   -2.7323    0.0000 C.2     1  UNL1       -0.0150
     19 C           7.5770    0.0604    0.0000 C.3     1  UNL1       -0.0430
     20 C           4.8930   -3.2479    0.0000 C.3     1  UNL1       -0.0427
     21 C           5.1081    2.3470    0.0000 C.2     1  UNL1        0.3042
     22 C           4.6742    3.2479    0.0000 C.3     1  UNL1        0.0332
     23 H           4.0200    0.6191    0.0000 H       1  UNL1        0.0381
     24 H           4.6147   -1.9862    0.0000 H       1  UNL1        0.0747
     25 H           4.7916   -2.0714    0.0000 H       1  UNL1        0.0431
     26 H           3.6936    0.4501    0.0000 H       1  UNL1        0.0416
     27 H           5.3085    1.1447    0.0000 H       1  UNL1        0.0741
     28 H           6.5372    0.8888    0.0000 H       1  UNL1        0.0346
     29 H           5.8407    1.2242    0.0000 H       1  UNL1        0.0346
     30 H           3.3821    1.1009    0.0000 H       1  UNL1        0.0238
     31 H           2.5315    1.3137    0.0000 H       1  UNL1        0.0238
     32 H           2.3188    0.4631    0.0000 H       1  UNL1        0.0238
     33 H           6.8619   -3.2909    0.0000 H       1  UNL1        0.0655
     34 H           7.7150   -0.5440    0.0000 H       1  UNL1        0.0275
     35 H           8.1815    0.1984    0.0000 H       1  UNL1        0.0275
     36 H           7.4391    0.6649    0.0000 H       1  UNL1        0.0275
     37 H           4.4638   -2.8005    0.0000 H       1  UNL1        0.0275
     38 H           4.4456   -3.6772    0.0000 H       1  UNL1        0.0275
     39 H           5.3223   -3.6953    0.0000 H       1  UNL1        0.0275
     40 H           5.2328    3.5169    0.0000 H       1  UNL1        0.0342
     41 H           4.4052    3.8065    0.0000 H       1  UNL1        0.0342
     42 H           4.1156    2.9789    0.0000 H       1  UNL1        0.0342
@<TRIPOS>BOND
     1     1     7    1
     2     1    15    1
     3    10     2    1
     4     2    21    1
     5     3    15    2
     6     4    17    2
     7     5    21    2
     8     6     7    1
     9     6     9    1
    10     6    10    1
    11     6    23    1
    12     7     8    1
    13     7    24    1
    14     8    11    1
    15     8    14    1
    16     8    25    1
    17     9    15    1
    18     9    16    1
    19     9    26    1
    20    10    12    1
    21    10    27    1
    22    11    13    2
    23    11    17    1
    24    12    13    1
    25    12    28    1
    26    12    29    1
    27    13    19    1
    28    14    18    2
    29    14    20    1
    30    16    30    1
    31    16    31    1
    32    16    32    1
    33    17    18    1
    34    18    33    1
    35    19    34    1
    36    19    35    1
    37    19    36    1
    38    20    37    1
    39    20    38    1
    40    20    39    1
    41    21    22    1
    42    22    40    1
    43    22    41    1
    44    22    42    1
