@<TRIPOS>MOLECULE
IMPHY017209
 39 40 0 0 0
SMALL
GASTEIGER

@<TRIPOS>ATOM
      1 C           5.4641   -0.0000    0.0000 C.3     1  UNL1       -0.0048
      2 C           6.3580   -0.5347    0.0000 C.3     1  UNL1       -0.0342
      3 C           5.4641    1.0000    0.0000 C.2     1  UNL1       -0.0667
      4 C           4.5981   -0.5000    0.0000 C.3     1  UNL1       -0.0221
      5 C           7.2641   -0.0208    0.0000 C.3     1  UNL1       -0.0462
      6 C           4.5981    1.5000    0.0000 C.3     1  UNL1       -0.0275
      7 C           5.4641   -1.0000    0.0000 C.3     1  UNL1       -0.0553
      8 C           3.7320   -0.0000    0.0000 C.2     1  UNL1       -0.0697
      9 C           7.2641    1.0208    0.0000 C.3     1  UNL1       -0.0342
     10 C           3.7320    1.0000    0.0000 C.3     1  UNL1       -0.0278
     11 C           6.3580    1.5346    0.0000 C.2     1  UNL1       -0.0842
     12 C           6.3465   -1.5346    0.0000 C.3     1  UNL1       -0.0616
     13 C           2.8660   -0.5000    0.0000 C.2     1  UNL1       -0.0764
     14 C           2.0000   -0.0000    0.0000 C.3     1  UNL1       -0.0438
     15 C           2.8660   -1.5000    0.0000 C.3     1  UNL1       -0.0438
     16 H           6.8920   -0.8499    0.0000 H       1  UNL1        0.0307
     17 H           4.1996   -0.9750    0.0000 H       1  UNL1        0.0319
     18 H           4.9966   -0.9750    0.0000 H       1  UNL1        0.0319
     19 H           7.4732   -0.6045    0.0000 H       1  UNL1        0.0271
     20 H           7.8750    0.0852    0.0000 H       1  UNL1        0.0271
     21 H           4.9966    1.9749    0.0000 H       1  UNL1        0.0313
     22 H           4.1996    1.9749    0.0000 H       1  UNL1        0.0313
     23 H           4.8441   -1.0000    0.0000 H       1  UNL1        0.0238
     24 H           5.4641   -1.6200    0.0000 H       1  UNL1        0.0238
     25 H           6.0841   -1.0000    0.0000 H       1  UNL1        0.0238
     26 H           7.8750    0.9147    0.0000 H       1  UNL1        0.0307
     27 H           7.4732    1.6045    0.0000 H       1  UNL1        0.0307
     28 H           3.5200    1.5826    0.0000 H       1  UNL1        0.0313
     29 H           3.1215    0.8923    0.0000 H       1  UNL1        0.0313
     30 H           6.3509    2.1546    0.0000 H       1  UNL1        0.0572
     31 H           5.7265   -1.5275    0.0000 H       1  UNL1        0.0233
     32 H           6.3393   -2.1546    0.0000 H       1  UNL1        0.0233
     33 H           6.9664   -1.5418    0.0000 H       1  UNL1        0.0233
     34 H           2.3100    0.5369    0.0000 H       1  UNL1        0.0274
     35 H           1.4631    0.3100    0.0000 H       1  UNL1        0.0274
     36 H           1.6900   -0.5370    0.0000 H       1  UNL1        0.0274
     37 H           2.2460   -1.5000    0.0000 H       1  UNL1        0.0274
     38 H           2.8660   -2.1200    0.0000 H       1  UNL1        0.0274
     39 H           3.4860   -1.5000    0.0000 H       1  UNL1        0.0274
@<TRIPOS>BOND
     1     1     2    1
     2     1     3    1
     3     1     4    1
     4     1     7    1
     5     2     5    1
     6     2    12    1
     7     2    16    1
     8     3     6    1
     9     3    11    2
    10     4     8    1
    11     4    17    1
    12     4    18    1
    13     5     9    1
    14     5    19    1
    15     5    20    1
    16     6    10    1
    17     6    21    1
    18     6    22    1
    19     7    23    1
    20     7    24    1
    21     7    25    1
    22     8    10    1
    23     8    13    2
    24     9    11    1
    25     9    26    1
    26     9    27    1
    27    10    28    1
    28    10    29    1
    29    11    30    1
    30    12    31    1
    31    12    32    1
    32    12    33    1
    33    13    14    1
    34    13    15    1
    35    14    34    1
    36    14    35    1
    37    14    36    1
    38    15    37    1
    39    15    38    1
    40    15    39    1
