@<TRIPOS>MOLECULE
IMPHY004294
 82 86 0 0 0
SMALL
GASTEIGER

@<TRIPOS>ATOM
      1 O          11.1246    3.0930    0.0000 O.3     1  UNL1       -0.3912
      2 O           5.7726   -3.1206    0.0000 O.3     1  UNL1       -0.3908
      3 O          11.7572    0.6329    0.0000 O.3     1  UNL1       -0.3944
      4 O           3.9891   -3.0931    0.0000 O.3     1  UNL1       -0.3941
      5 C           7.5167   -0.0513    0.0000 C.3     1  UNL1       -0.0158
      6 C           8.4106    1.4833    0.0000 C.3     1  UNL1       -0.0217
      7 C           7.5167    0.9487    0.0000 C.3     1  UNL1       -0.0107
      8 C           9.3167    0.9695    0.0000 C.3     1  UNL1       -0.0252
      9 C           6.6507   -0.5513    0.0000 C.3     1  UNL1        0.0012
     10 C           8.4106   -0.5860    0.0000 C.3     1  UNL1       -0.0460
     11 C          10.2605    1.5047    0.0000 C.3     1  UNL1        0.0203
     12 C           9.3167   -0.0722    0.0000 C.3     1  UNL1       -0.0485
     13 C           8.3856    2.5680    0.0000 C.3     1  UNL1       -0.0444
     14 C           5.7847   -0.0513    0.0000 C.2     1  UNL1       -0.0412
     15 C           6.6667   -1.5928    0.0000 C.3     1  UNL1       -0.0160
     16 C           4.8666   -1.5998    0.0000 C.3     1  UNL1        0.0413
     17 C          10.2605    2.5897    0.0000 C.3     1  UNL1        0.0630
     18 C           7.8588   -0.9910    0.0000 C.3     1  UNL1       -0.0582
     19 C           6.6507    1.4487    0.0000 C.2     1  UNL1       -0.0796
     20 C           9.3167    3.1250    0.0000 C.3     1  UNL1       -0.0257
     21 C           4.8746   -0.5582    0.0000 C.2     1  UNL1       -0.0546
     22 C           7.5408    1.9766    0.0000 C.3     1  UNL1       -0.0587
     23 C           5.7687   -2.1206    0.0000 C.3     1  UNL1        0.0674
     24 C           7.2935   -1.3174    0.0000 C.3     1  UNL1       -0.0549
     25 C           5.7847    0.9487    0.0000 C.2     1  UNL1       -0.0617
     26 C          11.2605    1.5009    0.0000 C.3     1  UNL1        0.0522
     27 C          10.7572    0.6368    0.0000 C.3     1  UNL1       -0.0548
     28 C           3.9312   -2.1495    0.0000 C.3     1  UNL1       -0.0387
     29 C           3.9478    0.0059    0.0000 C.3     1  UNL1       -0.0253
     30 C           2.9999   -0.5220    0.0000 C.3     1  UNL1       -0.0311
     31 C           2.9916   -1.6070    0.0000 C.3     1  UNL1       -0.0466
     32 C           4.8589   -2.5997    0.0000 C.3     1  UNL1        0.0559
     33 C           2.0000   -0.5105    0.0000 C.3     1  UNL1       -0.0595
     34 C           2.5100    0.3497    0.0000 C.3     1  UNL1       -0.0595
     35 H           8.2561    0.5294    0.0000 H       1  UNL1        0.0354
     36 H          10.0512    0.5416    0.0000 H       1  UNL1        0.0313
     37 H           8.0060   -1.0558    0.0000 H       1  UNL1        0.0271
     38 H           8.8043   -1.0650    0.0000 H       1  UNL1        0.0271
     39 H           9.5258   -0.6558    0.0000 H       1  UNL1        0.0268
     40 H           9.9276    0.0339    0.0000 H       1  UNL1        0.0268
     41 H           8.1631    3.1467    0.0000 H       1  UNL1        0.0272
     42 H           7.7773    2.4478    0.0000 H       1  UNL1        0.0272
     43 H           6.8848   -2.1732    0.0000 H       1  UNL1        0.0299
     44 H           7.2759   -1.4773    0.0000 H       1  UNL1        0.0299
     45 H          10.2569    3.2097    0.0000 H       1  UNL1        0.0599
     46 H           7.2762   -1.2031    0.0000 H       1  UNL1        0.0236
     47 H           8.0709   -1.5736    0.0000 H       1  UNL1        0.0236
     48 H           8.4414   -0.7789    0.0000 H       1  UNL1        0.0236
     49 H           6.6507    2.0687    0.0000 H       1  UNL1        0.0575
     50 H           9.7103    3.6040    0.0000 H       1  UNL1        0.0290
     51 H           8.9121    3.5947    0.0000 H       1  UNL1        0.0290
     52 H           7.8466    2.5159    0.0000 H       1  UNL1        0.0235
     53 H           7.0015    2.2825    0.0000 H       1  UNL1        0.0235
     54 H           7.2349    1.4373    0.0000 H       1  UNL1        0.0235
     55 H           6.3074   -2.4275    0.0000 H       1  UNL1        0.0603
     56 H           6.8185   -1.7159    0.0000 H       1  UNL1        0.0238
     57 H           7.6920   -1.7923    0.0000 H       1  UNL1        0.0238
     58 H           7.7684   -0.9189    0.0000 H       1  UNL1        0.0238
     59 H           5.2477    1.2587    0.0000 H       1  UNL1        0.0617
     60 H          11.8439    1.7107    0.0000 H       1  UNL1        0.0563
     61 H          11.1552    2.1118    0.0000 H       1  UNL1        0.0563
     62 H           3.5339   -2.6255    0.0000 H       1  UNL1        0.0275
     63 H           4.3322   -2.6224    0.0000 H       1  UNL1        0.0275
     64 H          10.2190    0.3288    0.0000 H       1  UNL1        0.0237
     65 H          11.0651    0.0986    0.0000 H       1  UNL1        0.0237
     66 H          11.2953    0.9447    0.0000 H       1  UNL1        0.0237
     67 H           4.3560    0.4726    0.0000 H       1  UNL1        0.0316
     68 H           3.5579    0.4879    0.0000 H       1  UNL1        0.0316
     69 H           2.3816   -1.4962    0.0000 H       1  UNL1        0.0271
     70 H           2.7780   -2.1891    0.0000 H       1  UNL1        0.0271
     71 H           5.0665   -3.1840    0.0000 H       1  UNL1        0.0567
     72 H           5.4703   -2.4968    0.0000 H       1  UNL1        0.0567
     73 H          11.1222    3.7130    0.0000 H       1  UNL1        0.2098
     74 H           6.3107   -3.4285    0.0000 H       1  UNL1        0.2098
     75 H           3.0505    0.6535    0.0000 H       1  UNL1        0.0235
     76 H           2.0072    0.1095    0.0000 H       1  UNL1        0.0235
     77 H           1.3800   -0.5033    0.0000 H       1  UNL1        0.0235
     78 H           2.2062    0.8902    0.0000 H       1  UNL1        0.0235
     79 H           1.9695    0.0459    0.0000 H       1  UNL1        0.0235
     80 H           1.9928   -1.1304    0.0000 H       1  UNL1        0.0235
     81 H          12.3771    0.6305    0.0000 H       1  UNL1        0.2094
     82 H           3.9843   -3.7130    0.0000 H       1  UNL1        0.2094
@<TRIPOS>BOND
     1    17     1    1
     2     1    73    1
     3    23     2    1
     4     2    74    1
     5     3    26    1
     6     3    81    1
     7     4    32    1
     8     4    82    1
     9     5     7    1
    10     5     9    1
    11     5    10    1
    12     5    18    1
    13     6     7    1
    14     6     8    1
    15     6    13    1
    16     6    22    1
    17     7    19    1
    18     7    35    1
    19     8    11    1
    20     8    12    1
    21     8    36    1
    22     9    14    1
    23     9    15    1
    24     9    24    1
    25    10    12    1
    26    10    37    1
    27    10    38    1
    28    11    17    1
    29    11    26    1
    30    11    27    1
    31    12    39    1
    32    12    40    1
    33    13    20    1
    34    13    41    1
    35    13    42    1
    36    14    21    2
    37    14    25    1
    38    15    23    1
    39    15    43    1
    40    15    44    1
    41    16    21    1
    42    16    23    1
    43    16    28    1
    44    16    32    1
    45    17    20    1
    46    17    45    1
    47    18    46    1
    48    18    47    1
    49    18    48    1
    50    19    25    2
    51    19    49    1
    52    20    50    1
    53    20    51    1
    54    21    29    1
    55    22    52    1
    56    22    53    1
    57    22    54    1
    58    23    55    1
    59    24    56    1
    60    24    57    1
    61    24    58    1
    62    25    59    1
    63    26    60    1
    64    26    61    1
    65    27    64    1
    66    27    65    1
    67    27    66    1
    68    28    31    1
    69    28    62    1
    70    28    63    1
    71    29    30    1
    72    29    67    1
    73    29    68    1
    74    30    31    1
    75    30    33    1
    76    30    34    1
    77    31    69    1
    78    31    70    1
    79    32    71    1
    80    32    72    1
    81    33    76    1
    82    33    77    1
    83    33    80    1
    84    34    75    1
    85    34    78    1
    86    34    79    1
