@<TRIPOS>MOLECULE
IMPHY015724
 24 23 0 0 0
SMALL
GASTEIGER

@<TRIPOS>ATOM
      1 O           5.4641    1.0000    0.0000 O.3     1  UNL1       -0.4574
      2 O           6.3301   -0.5000    0.0000 O.2     1  UNL1       -0.2511
      3 C           3.7320    1.0000    0.0000 C.3     1  UNL1       -0.0122
      4 C           4.5981    0.5000    0.0000 C.3     1  UNL1        0.1210
      5 C           2.8660    0.5000    0.0000 C.3     1  UNL1       -0.0523
      6 C           2.0000    1.0000    0.0000 C.3     1  UNL1       -0.0652
      7 C           4.5981   -0.5000    0.0000 C.2     1  UNL1       -0.0511
      8 C           6.3301    0.5000    0.0000 C.2     1  UNL1        0.3045
      9 C           3.7320   -1.0000    0.0000 C.2     1  UNL1       -0.0992
     10 C           7.1962    1.0000    0.0000 C.3     1  UNL1        0.0333
     11 H           4.1306    1.4750    0.0000 H       1  UNL1        0.0304
     12 H           3.3335    1.4750    0.0000 H       1  UNL1        0.0304
     13 H           4.5981    1.1200    0.0000 H       1  UNL1        0.0779
     14 H           2.4675    0.0251    0.0000 H       1  UNL1        0.0264
     15 H           3.2646    0.0251    0.0000 H       1  UNL1        0.0264
     16 H           2.3100    1.5369    0.0000 H       1  UNL1        0.0230
     17 H           1.4631    1.3100    0.0000 H       1  UNL1        0.0230
     18 H           1.6900    0.4631    0.0000 H       1  UNL1        0.0230
     19 H           5.1350   -0.8100    0.0000 H       1  UNL1        0.0603
     20 H           3.1951   -0.6900    0.0000 H       1  UNL1        0.0533
     21 H           3.7320   -1.6200    0.0000 H       1  UNL1        0.0533
     22 H           7.5062    0.4631    0.0000 H       1  UNL1        0.0342
     23 H           7.7331    1.3100    0.0000 H       1  UNL1        0.0342
     24 H           6.8862    1.5369    0.0000 H       1  UNL1        0.0342
@<TRIPOS>BOND
     1     1     4    1
     2     1     8    1
     3     2     8    2
     4     3     4    1
     5     3     5    1
     6     3    11    1
     7     3    12    1
     8     4     7    1
     9     4    13    1
    10     5     6    1
    11     5    14    1
    12     5    15    1
    13     6    16    1
    14     6    17    1
    15     6    18    1
    16     7     9    2
    17     7    19    1
    18     8    10    1
    19     9    20    1
    20     9    21    1
    21    10    22    1
    22    10    23    1
    23    10    24    1
