@<TRIPOS>MOLECULE
IMPHY010399
 76 82 0 0 0
SMALL
GASTEIGER

@<TRIPOS>ATOM
      1 O           6.6610   -2.0163    0.0000 O.3     1  UNL1       -0.4599
      2 O          10.2064    0.1779    0.0000 O.3     1  UNL1       -0.3885
      3 O           6.9159    3.3219    0.0000 O.3     1  UNL1       -0.3882
      4 O           3.7508    0.6369    0.0000 O.3     1  UNL1       -0.4564
      5 O           6.2278   -3.7215    0.0000 O.2     1  UNL1       -0.2505
      6 O           2.0000    0.7472    0.0000 O.2     1  UNL1       -0.2505
      7 C           7.5321   -0.5306    0.0000 C.3     1  UNL1        0.0414
      8 C           6.7231    0.0572    0.0000 C.3     1  UNL1       -0.0027
      9 C           8.3411    0.0572    0.0000 C.3     1  UNL1        0.0074
     10 C           7.0321    1.0082    0.0000 C.3     1  UNL1       -0.0177
     11 C           8.0321    1.0082    0.0000 C.3     1  UNL1       -0.0123
     12 C           6.2264    1.5904    0.0000 C.3     1  UNL1        0.0163
     13 C           7.4947   -1.5107    0.0000 C.3     1  UNL1        0.1167
     14 C           7.2781   -0.0180    0.0000 C.2     1  UNL1       -0.0657
     15 C           9.2848   -0.2101    0.0000 C.3     1  UNL1        0.0676
     16 C           5.7290    0.0597    0.0000 C.2     1  UNL1       -0.0652
     17 C           7.5253    0.7428    0.0000 C.2     1  UNL1       -0.0806
     18 C           5.4226    1.0054    0.0000 C.2     1  UNL1       -0.0239
     19 C           8.2359   -2.1530    0.0000 C.3     1  UNL1        0.0097
     20 C           6.2627    2.5647    0.0000 C.3     1  UNL1        0.0702
     21 C           9.6666   -1.1135    0.0000 C.3     1  UNL1       -0.0236
     22 C           9.2007   -1.9766    0.0000 C.3     1  UNL1       -0.0435
     23 C           4.4843    1.2703    0.0000 C.3     1  UNL1        0.1283
     24 C           7.8540   -3.0501    0.0000 C.3     1  UNL1        0.0598
     25 C           6.8873   -0.9385    0.0000 C.3     1  UNL1       -0.0431
     26 C           9.5560    0.7524    0.0000 C.3     1  UNL1       -0.0358
     27 C           4.1040    2.1680    0.0000 C.3     1  UNL1        0.0128
     28 C           5.5253    3.2026    0.0000 C.3     1  UNL1       -0.0233
     29 C           5.1398   -0.7483    0.0000 C.3     1  UNL1       -0.0431
     30 C           4.5664    3.0264    0.0000 C.3     1  UNL1       -0.0432
     31 C           6.8827   -2.9658    0.0000 C.2     1  UNL1        0.3106
     32 C           7.2620    2.5261    0.0000 C.3     1  UNL1       -0.0355
     33 C           3.1386    2.0817    0.0000 C.3     1  UNL1        0.0601
     34 C           8.3689   -3.9074    0.0000 C.3     1  UNL1       -0.0519
     35 C           2.9208    1.1373    0.0000 C.2     1  UNL1        0.3109
     36 C           2.4818    2.8358    0.0000 C.3     1  UNL1       -0.0519
     37 H           6.0914   -0.5116    0.0000 H       1  UNL1        0.0358
     38 H           9.0288    0.5568    0.0000 H       1  UNL1        0.0344
     39 H           7.2948    1.8166    0.0000 H       1  UNL1        0.0319
     40 H           8.2948    1.8166    0.0000 H       1  UNL1        0.0350
     41 H           6.9903    1.9631    0.0000 H       1  UNL1        0.0378
     42 H           6.7621   -1.0796    0.0000 H       1  UNL1        0.0746
     43 H           7.0516    1.1428    0.0000 H       1  UNL1        0.0575
     44 H           8.7668   -2.8168    0.0000 H       1  UNL1        0.0345
     45 H          10.1326   -1.5225    0.0000 H       1  UNL1        0.0293
     46 H          10.1694   -0.7507    0.0000 H       1  UNL1        0.0293
     47 H           9.1732   -2.5960    0.0000 H       1  UNL1        0.0270
     48 H           9.7983   -2.1418    0.0000 H       1  UNL1        0.0270
     49 H           4.6687    0.4405    0.0000 H       1  UNL1        0.0785
     50 H           7.5256   -3.5760    0.0000 H       1  UNL1        0.0415
     51 H           6.3166   -0.6962    0.0000 H       1  UNL1        0.0275
     52 H           6.6450   -1.5092    0.0000 H       1  UNL1        0.0275
     53 H           7.4580   -1.1808    0.0000 H       1  UNL1        0.0275
     54 H          10.1528    0.5842    0.0000 H       1  UNL1        0.0257
     55 H           9.7242    1.3492    0.0000 H       1  UNL1        0.0257
     56 H           8.9593    0.9205    0.0000 H       1  UNL1        0.0257
     57 H           3.6361    2.8777    0.0000 H       1  UNL1        0.0348
     58 H           6.0255    3.5690    0.0000 H       1  UNL1        0.0293
     59 H           5.2799    3.7720    0.0000 H       1  UNL1        0.0293
     60 H           4.6389   -0.3830    0.0000 H       1  UNL1        0.0275
     61 H           4.7745   -1.2492    0.0000 H       1  UNL1        0.0275
     62 H           5.6408   -1.1136    0.0000 H       1  UNL1        0.0275
     63 H           4.5934    3.6458    0.0000 H       1  UNL1        0.0270
     64 H           3.9687    3.1911    0.0000 H       1  UNL1        0.0270
     65 H          10.7005   -0.1966    0.0000 H       1  UNL1        0.2102
     66 H           7.2380    1.9066    0.0000 H       1  UNL1        0.0257
     67 H           7.8815    2.5022    0.0000 H       1  UNL1        0.0257
     68 H           7.2859    3.1456    0.0000 H       1  UNL1        0.0257
     69 H           2.5371    1.9314    0.0000 H       1  UNL1        0.0415
     70 H           6.7119    3.9074    0.0000 H       1  UNL1        0.2102
     71 H           7.8374   -4.2266    0.0000 H       1  UNL1        0.0238
     72 H           8.6881   -4.4389    0.0000 H       1  UNL1        0.0238
     73 H           8.9004   -3.5881    0.0000 H       1  UNL1        0.0238
     74 H           2.9493    3.2430    0.0000 H       1  UNL1        0.0238
     75 H           2.0745    3.3032    0.0000 H       1  UNL1        0.0238
     76 H           2.0143    2.4285    0.0000 H       1  UNL1        0.0238
@<TRIPOS>BOND
     1     1    13    1
     2     1    31    1
     3    15     2    1
     4     2    65    1
     5    20     3    1
     6     3    70    1
     7     4    23    1
     8     4    35    1
     9     5    31    2
    10     6    35    2
    11     7     8    1
    12     7     9    1
    13     7    13    1
    14     7    14    1
    15     8    10    1
    16     8    16    1
    17     8    37    1
    18     9    11    1
    19     9    15    1
    20     9    38    1
    21    10    11    1
    22    10    12    1
    23    10    39    1
    24    11    17    1
    25    11    40    1
    26    12    18    1
    27    12    20    1
    28    12    41    1
    29    13    19    1
    30    13    42    1
    31    14    17    2
    32    14    25    1
    33    15    21    1
    34    15    26    1
    35    16    18    2
    36    16    29    1
    37    17    43    1
    38    18    23    1
    39    19    22    1
    40    19    24    1
    41    19    44    1
    42    20    28    1
    43    20    32    1
    44    21    22    1
    45    21    45    1
    46    21    46    1
    47    22    47    1
    48    22    48    1
    49    23    27    1
    50    23    49    1
    51    24    31    1
    52    24    34    1
    53    24    50    1
    54    25    51    1
    55    25    52    1
    56    25    53    1
    57    26    54    1
    58    26    55    1
    59    26    56    1
    60    27    30    1
    61    27    33    1
    62    27    57    1
    63    28    30    1
    64    28    58    1
    65    28    59    1
    66    29    60    1
    67    29    61    1
    68    29    62    1
    69    30    63    1
    70    30    64    1
    71    32    66    1
    72    32    67    1
    73    32    68    1
    74    33    35    1
    75    33    36    1
    76    33    69    1
    77    34    71    1
    78    34    72    1
    79    34    73    1
    80    36    74    1
    81    36    75    1
    82    36    76    1
