@<TRIPOS>MOLECULE
IMPHY009563
 92 91 0 0 0
SMALL
GASTEIGER

@<TRIPOS>ATOM
      1 O          14.9904    0.7500    0.0000 O.3     1  UNL1       -0.4646
      2 O          14.1244   -0.7500    0.0000 O.2     1  UNL1       -0.2509
      3 C           4.5981    0.7500    0.0000 C.3     1  UNL1       -0.0505
      4 C           5.4641    0.2500    0.0000 C.3     1  UNL1       -0.0528
      5 C           3.7320    0.2500    0.0000 C.3     1  UNL1       -0.0441
      6 C           6.3301    0.7500    0.0000 C.3     1  UNL1       -0.0530
      7 C           7.1962    0.2500    0.0000 C.3     1  UNL1       -0.0531
      8 C           8.0622    0.7500    0.0000 C.3     1  UNL1       -0.0531
      9 C           8.9282    0.2500    0.0000 C.3     1  UNL1       -0.0531
     10 C           9.7942    0.7500    0.0000 C.3     1  UNL1       -0.0531
     11 C           2.8660    0.7500    0.0000 C.3     1  UNL1       -0.0533
     12 C          10.6603    0.2500    0.0000 C.3     1  UNL1       -0.0530
     13 C          21.0526    0.2500    0.0000 C.3     1  UNL1       -0.0531
     14 C          20.1865    0.7500    0.0000 C.3     1  UNL1       -0.0531
     15 C          21.9186    0.7500    0.0000 C.3     1  UNL1       -0.0531
     16 C          19.3205    0.2500    0.0000 C.3     1  UNL1       -0.0531
     17 C          22.7846    0.2500    0.0000 C.3     1  UNL1       -0.0531
     18 C           3.7320   -0.7500    0.0000 C.3     1  UNL1       -0.0624
     19 C          11.5263    0.7500    0.0000 C.3     1  UNL1       -0.0526
     20 C          18.4545    0.7500    0.0000 C.3     1  UNL1       -0.0530
     21 C          23.6506    0.7500    0.0000 C.3     1  UNL1       -0.0531
     22 C          17.5885    0.2500    0.0000 C.3     1  UNL1       -0.0500
     23 C          24.5167    0.2500    0.0000 C.3     1  UNL1       -0.0531
     24 C          12.3923    0.2500    0.0000 C.3     1  UNL1       -0.0430
     25 C           2.0000    0.2500    0.0000 C.3     1  UNL1       -0.0650
     26 C          16.7224    0.7500    0.0000 C.3     1  UNL1       -0.0185
     27 C          25.3827    0.7500    0.0000 C.3     1  UNL1       -0.0533
     28 C          13.2583    0.7500    0.0000 C.3     1  UNL1        0.0449
     29 C          15.8564    0.2500    0.0000 C.3     1  UNL1        0.0925
     30 C          26.2487    0.2500    0.0000 C.3     1  UNL1       -0.0559
     31 C          14.1244    0.2500    0.0000 C.2     1  UNL1        0.3071
     32 C          27.1147    0.7500    0.0000 C.3     1  UNL1       -0.0653
     33 H           4.9966    1.2250    0.0000 H       1  UNL1        0.0268
     34 H           4.1996    1.2250    0.0000 H       1  UNL1        0.0268
     35 H           5.0656   -0.2249    0.0000 H       1  UNL1        0.0265
     36 H           5.8626   -0.2249    0.0000 H       1  UNL1        0.0265
     37 H           4.2690   -0.0600    0.0000 H       1  UNL1        0.0298
     38 H           6.7287    1.2250    0.0000 H       1  UNL1        0.0265
     39 H           5.9316    1.2250    0.0000 H       1  UNL1        0.0265
     40 H           6.7976   -0.2249    0.0000 H       1  UNL1        0.0265
     41 H           7.5947   -0.2249    0.0000 H       1  UNL1        0.0265
     42 H           8.4607    1.2250    0.0000 H       1  UNL1        0.0265
     43 H           7.6636    1.2250    0.0000 H       1  UNL1        0.0265
     44 H           8.5297   -0.2249    0.0000 H       1  UNL1        0.0265
     45 H           9.3267   -0.2249    0.0000 H       1  UNL1        0.0265
     46 H          10.1928    1.2250    0.0000 H       1  UNL1        0.0265
     47 H           9.3957    1.2250    0.0000 H       1  UNL1        0.0265
     48 H           3.2646    1.2250    0.0000 H       1  UNL1        0.0265
     49 H           2.4675    1.2250    0.0000 H       1  UNL1        0.0265
     50 H          10.2617   -0.2249    0.0000 H       1  UNL1        0.0265
     51 H          11.0588   -0.2249    0.0000 H       1  UNL1        0.0265
     52 H          20.6540   -0.2249    0.0000 H       1  UNL1        0.0265
     53 H          21.4511   -0.2249    0.0000 H       1  UNL1        0.0265
     54 H          20.5851    1.2250    0.0000 H       1  UNL1        0.0265
     55 H          19.7880    1.2250    0.0000 H       1  UNL1        0.0265
     56 H          22.3171    1.2250    0.0000 H       1  UNL1        0.0265
     57 H          21.5201    1.2250    0.0000 H       1  UNL1        0.0265
     58 H          18.9220   -0.2249    0.0000 H       1  UNL1        0.0265
     59 H          19.7190   -0.2249    0.0000 H       1  UNL1        0.0265
     60 H          22.3861   -0.2249    0.0000 H       1  UNL1        0.0265
     61 H          23.1831   -0.2249    0.0000 H       1  UNL1        0.0265
     62 H           3.1120   -0.7500    0.0000 H       1  UNL1        0.0232
     63 H           3.7320   -1.3700    0.0000 H       1  UNL1        0.0232
     64 H           4.3520   -0.7500    0.0000 H       1  UNL1        0.0232
     65 H          11.9248    1.2250    0.0000 H       1  UNL1        0.0265
     66 H          11.1278    1.2250    0.0000 H       1  UNL1        0.0265
     67 H          18.8530    1.2250    0.0000 H       1  UNL1        0.0265
     68 H          18.0560    1.2250    0.0000 H       1  UNL1        0.0265
     69 H          24.0492    1.2250    0.0000 H       1  UNL1        0.0265
     70 H          23.2521    1.2250    0.0000 H       1  UNL1        0.0265
     71 H          17.1899   -0.2249    0.0000 H       1  UNL1        0.0266
     72 H          17.9870   -0.2249    0.0000 H       1  UNL1        0.0266
     73 H          24.1181   -0.2249    0.0000 H       1  UNL1        0.0265
     74 H          24.9152   -0.2249    0.0000 H       1  UNL1        0.0265
     75 H          11.9938   -0.2249    0.0000 H       1  UNL1        0.0270
     76 H          12.7908   -0.2249    0.0000 H       1  UNL1        0.0270
     77 H           1.6900    0.7869    0.0000 H       1  UNL1        0.0230
     78 H           1.4631   -0.0600    0.0000 H       1  UNL1        0.0230
     79 H           2.3100   -0.2869    0.0000 H       1  UNL1        0.0230
     80 H          17.1210    1.2250    0.0000 H       1  UNL1        0.0298
     81 H          16.3239    1.2250    0.0000 H       1  UNL1        0.0298
     82 H          25.7812    1.2250    0.0000 H       1  UNL1        0.0265
     83 H          24.9842    1.2250    0.0000 H       1  UNL1        0.0265
     84 H          13.6569    1.2250    0.0000 H       1  UNL1        0.0377
     85 H          12.8598    1.2250    0.0000 H       1  UNL1        0.0377
     86 H          15.4579   -0.2249    0.0000 H       1  UNL1        0.0697
     87 H          16.2549   -0.2249    0.0000 H       1  UNL1        0.0697
     88 H          25.8502   -0.2249    0.0000 H       1  UNL1        0.0263
     89 H          26.6472   -0.2249    0.0000 H       1  UNL1        0.0263
     90 H          27.4247    0.2131    0.0000 H       1  UNL1        0.0230
     91 H          27.6517    1.0600    0.0000 H       1  UNL1        0.0230
     92 H          26.8047    1.2869    0.0000 H       1  UNL1        0.0230
@<TRIPOS>BOND
     1     1    29    1
     2     1    31    1
     3     2    31    2
     4     3     4    1
     5     3     5    1
     6     3    33    1
     7     3    34    1
     8     4     6    1
     9     4    35    1
    10     4    36    1
    11     5    11    1
    12     5    18    1
    13     5    37    1
    14     6     7    1
    15     6    38    1
    16     6    39    1
    17     7     8    1
    18     7    40    1
    19     7    41    1
    20     8     9    1
    21     8    42    1
    22     8    43    1
    23     9    10    1
    24     9    44    1
    25     9    45    1
    26    10    12    1
    27    10    46    1
    28    10    47    1
    29    11    25    1
    30    11    48    1
    31    11    49    1
    32    12    19    1
    33    12    50    1
    34    12    51    1
    35    13    14    1
    36    13    15    1
    37    13    52    1
    38    13    53    1
    39    14    16    1
    40    14    54    1
    41    14    55    1
    42    15    17    1
    43    15    56    1
    44    15    57    1
    45    16    20    1
    46    16    58    1
    47    16    59    1
    48    17    21    1
    49    17    60    1
    50    17    61    1
    51    18    62    1
    52    18    63    1
    53    18    64    1
    54    19    24    1
    55    19    65    1
    56    19    66    1
    57    20    22    1
    58    20    67    1
    59    20    68    1
    60    21    23    1
    61    21    69    1
    62    21    70    1
    63    22    26    1
    64    22    71    1
    65    22    72    1
    66    23    27    1
    67    23    73    1
    68    23    74    1
    69    24    28    1
    70    24    75    1
    71    24    76    1
    72    25    77    1
    73    25    78    1
    74    25    79    1
    75    26    29    1
    76    26    80    1
    77    26    81    1
    78    27    30    1
    79    27    82    1
    80    27    83    1
    81    28    31    1
    82    28    84    1
    83    28    85    1
    84    29    86    1
    85    29    87    1
    86    30    32    1
    87    30    88    1
    88    30    89    1
    89    32    90    1
    90    32    91    1
    91    32    92    1
