@<TRIPOS>MOLECULE
IMPHY004886
 30 29 0 0 0
SMALL
GASTEIGER

@<TRIPOS>ATOM
      1 O           2.5369    0.2500    0.0000 O.3     1  UNL1       -0.3921
      2 O          10.3312   -0.2500    0.0000 O.3     1  UNL1       -0.4806
      3 O           9.4651    1.2500    0.0000 O.2     1  UNL1       -0.2510
      4 C           6.0010    0.2500    0.0000 C.3     1  UNL1       -0.0530
      5 C           5.1350   -0.2500    0.0000 C.3     1  UNL1       -0.0507
      6 C           6.8671   -0.2500    0.0000 C.3     1  UNL1       -0.0526
      7 C           4.2690    0.2500    0.0000 C.3     1  UNL1       -0.0271
      8 C           7.7331    0.2500    0.0000 C.3     1  UNL1       -0.0430
      9 C           3.4030   -0.2500    0.0000 C.3     1  UNL1        0.0524
     10 C           8.5991   -0.2500    0.0000 C.3     1  UNL1        0.0448
     11 C           3.4030   -1.2500    0.0000 C.3     1  UNL1       -0.0389
     12 C           9.4651    0.2500    0.0000 C.2     1  UNL1        0.3047
     13 H           6.3996    0.7249    0.0000 H       1  UNL1        0.0265
     14 H           5.6025    0.7249    0.0000 H       1  UNL1        0.0265
     15 H           4.7365   -0.7249    0.0000 H       1  UNL1        0.0266
     16 H           5.5335   -0.7249    0.0000 H       1  UNL1        0.0266
     17 H           6.4685   -0.7249    0.0000 H       1  UNL1        0.0265
     18 H           7.2656   -0.7249    0.0000 H       1  UNL1        0.0265
     19 H           4.6675    0.7249    0.0000 H       1  UNL1        0.0290
     20 H           3.8705    0.7249    0.0000 H       1  UNL1        0.0290
     21 H           8.1316    0.7249    0.0000 H       1  UNL1        0.0270
     22 H           7.3346    0.7249    0.0000 H       1  UNL1        0.0270
     23 H           3.4030    0.6000    0.0000 H       1  UNL1        0.0590
     24 H           8.2006   -0.7249    0.0000 H       1  UNL1        0.0377
     25 H           8.9976   -0.7249    0.0000 H       1  UNL1        0.0377
     26 H           2.7830   -1.2500    0.0000 H       1  UNL1        0.0254
     27 H           3.4030   -1.8700    0.0000 H       1  UNL1        0.0254
     28 H           4.0230   -1.2500    0.0000 H       1  UNL1        0.0254
     29 H           2.0000   -0.0600    0.0000 H       1  UNL1        0.2098
     30 H          10.8681    0.0600    0.0000 H       1  UNL1        0.2951
@<TRIPOS>BOND
     1     1     9    1
     2     1    29    1
     3     2    12    1
     4     2    30    1
     5     3    12    2
     6     4     5    1
     7     4     6    1
     8     4    13    1
     9     4    14    1
    10     5     7    1
    11     5    15    1
    12     5    16    1
    13     6     8    1
    14     6    17    1
    15     6    18    1
    16     7     9    1
    17     7    19    1
    18     7    20    1
    19     8    10    1
    20     8    21    1
    21     8    22    1
    22     9    11    1
    23     9    23    1
    24    10    12    1
    25    10    24    1
    26    10    25    1
    27    11    26    1
    28    11    27    1
    29    11    28    1
