@<TRIPOS>MOLECULE
IMPHY002769
 68 72 0 0 0
SMALL
GASTEIGER

@<TRIPOS>ATOM
      1 O           8.0622    0.2254    0.0000 O.3     1  UNL1       -0.3301
      2 O           6.3301   -1.7746    0.0000 O.3     1  UNL1       -0.4529
      3 O           8.0622   -2.7746    0.0000 O.3     1  UNL1       -0.3852
      4 O           9.7942    0.2254    0.0000 O.3     1  UNL1       -0.4606
      5 O           9.7942   -1.7746    0.0000 O.3     1  UNL1       -0.3829
      6 O           5.4641   -0.2746    0.0000 O.3     1  UNL1       -0.3923
      7 O           7.1962   -3.2746    0.0000 O.2     1  UNL1       -0.2456
      8 O          11.5502    3.2879    0.0000 O.2     1  UNL1       -0.4544
      9 O           8.0480    3.3046    0.0000 O.3     1  UNL1       -0.5058
     10 O           8.9579    4.7980    0.0000 O.2     1  UNL1       -0.2869
     11 O          15.0258    6.2746    0.0000 O.3     1  UNL1       -0.5068
     12 O           2.0000   -6.2746    0.0000 O.3     1  UNL1       -0.5068
     13 C           7.1962   -1.2746    0.0000 C.3     1  UNL1        0.1599
     14 C           8.0622   -1.7746    0.0000 C.3     1  UNL1        0.1262
     15 C           7.1962   -0.2746    0.0000 C.3     1  UNL1        0.1250
     16 C           8.9282   -1.2746    0.0000 C.3     1  UNL1        0.1465
     17 C           8.9282   -0.2746    0.0000 C.3     1  UNL1        0.2309
     18 C           6.3301    0.2254    0.0000 C.3     1  UNL1        0.0741
     19 C           9.7942    1.2254    0.0000 C.ar    1  UNL1        0.1310
     20 C           6.3301   -2.7746    0.0000 C.2     1  UNL1        0.3324
     21 C          10.6943    1.7497    0.0000 C.ar    1  UNL1        0.0235
     22 C           8.8942    1.7497    0.0000 C.ar    1  UNL1        0.0226
     23 C          10.6822    2.7913    0.0000 C.ar    1  UNL1        0.1462
     24 C           9.8182    3.2946    0.0000 C.ar    1  UNL1        0.1055
     25 C           5.4641   -3.2746    0.0000 C.2     1  UNL1        0.0231
     26 C           8.9062    2.7913    0.0000 C.ar    1  UNL1        0.1347
     27 C           9.8220    4.2946    0.0000 C.ar    1  UNL1        0.1966
     28 C           5.4641   -4.2746    0.0000 C.2     1  UNL1       -0.0478
     29 C          11.5540    4.2879    0.0000 C.ar    1  UNL1        0.1392
     30 C          10.6900    4.7913    0.0000 C.ar    1  UNL1        0.0288
     31 C          12.4220    4.7846    0.0000 C.ar    1  UNL1        0.0176
     32 C           4.5981   -4.7746    0.0000 C.ar    1  UNL1       -0.0246
     33 C          13.2861    4.2813    0.0000 C.ar    1  UNL1       -0.0476
     34 C          12.4258    5.7846    0.0000 C.ar    1  UNL1       -0.0476
     35 C           3.7320   -4.2746    0.0000 C.ar    1  UNL1       -0.0511
     36 C           4.5981   -5.7746    0.0000 C.ar    1  UNL1       -0.0511
     37 C          14.1540    4.7779    0.0000 C.ar    1  UNL1       -0.0195
     38 C          13.2938    6.2812    0.0000 C.ar    1  UNL1       -0.0195
     39 C          14.1579    5.7779    0.0000 C.ar    1  UNL1        0.1169
     40 C           2.8660   -4.7746    0.0000 C.ar    1  UNL1       -0.0196
     41 C           3.7320   -6.2746    0.0000 C.ar    1  UNL1       -0.0196
     42 C           2.8660   -5.7746    0.0000 C.ar    1  UNL1        0.1169
     43 H           7.1962   -1.8946    0.0000 H       1  UNL1        0.0788
     44 H           8.5991   -2.0846    0.0000 H       1  UNL1        0.0659
     45 H           7.1962    0.3454    0.0000 H       1  UNL1        0.0658
     46 H           9.4651   -0.9646    0.0000 H       1  UNL1        0.0683
     47 H           8.9282    0.3454    0.0000 H       1  UNL1        0.1084
     48 H           6.7286    0.7004    0.0000 H       1  UNL1        0.0584
     49 H           5.9316    0.7004    0.0000 H       1  UNL1        0.0584
     50 H           8.5991   -3.0846    0.0000 H       1  UNL1        0.2101
     51 H          10.3312   -1.4646    0.0000 H       1  UNL1        0.2102
     52 H           4.9272    0.0354    0.0000 H       1  UNL1        0.2095
     53 H          11.2336    1.4439    0.0000 H       1  UNL1        0.0691
     54 H           8.3549    1.4439    0.0000 H       1  UNL1        0.0691
     55 H           4.9272   -2.9646    0.0000 H       1  UNL1        0.0689
     56 H           6.0010   -4.5846    0.0000 H       1  UNL1        0.0626
     57 H          10.6923    5.4113    0.0000 H       1  UNL1        0.0693
     58 H           7.5063    3.0029    0.0000 H       1  UNL1        0.2922
     59 H          13.2837    3.6613    0.0000 H       1  UNL1        0.0626
     60 H          11.8901    6.0966    0.0000 H       1  UNL1        0.0626
     61 H           3.7320   -3.6546    0.0000 H       1  UNL1        0.0625
     62 H           5.1350   -6.0846    0.0000 H       1  UNL1        0.0625
     63 H          14.6898    4.4658    0.0000 H       1  UNL1        0.0654
     64 H          13.2962    6.9012    0.0000 H       1  UNL1        0.0654
     65 H           2.3291   -4.4646    0.0000 H       1  UNL1        0.0654
     66 H           3.7320   -6.8946    0.0000 H       1  UNL1        0.0654
     67 H          15.0282    6.8946    0.0000 H       1  UNL1        0.2921
     68 H           2.0000   -6.8946    0.0000 H       1  UNL1        0.2921
@<TRIPOS>BOND
     1     1    15    1
     2     1    17    1
     3    13     2    1
     4     2    20    1
     5    14     3    1
     6     3    50    1
     7    17     4    1
     8     4    19    1
     9    16     5    1
    10     5    51    1
    11     6    18    1
    12     6    52    1
    13     7    20    2
    14     8    23   ar
    15     8    29   ar
    16     9    26    1
    17     9    58    1
    18    10    27    2
    19    11    39    1
    20    11    67    1
    21    12    42    1
    22    12    68    1
    23    13    14    1
    24    13    15    1
    25    13    43    1
    26    14    16    1
    27    14    44    1
    28    15    18    1
    29    15    45    1
    30    16    17    1
    31    16    46    1
    32    17    47    1
    33    18    48    1
    34    18    49    1
    35    19    21   ar
    36    19    22   ar
    37    20    25    1
    38    21    23   ar
    39    21    53    1
    40    22    26   ar
    41    22    54    1
    42    23    24   ar
    43    24    26   ar
    44    24    27   ar
    45    25    28    2
    46    25    55    1
    47    27    30   ar
    48    28    32    1
    49    28    56    1
    50    29    30   ar
    51    29    31    1
    52    30    57    1
    53    31    33   ar
    54    31    34   ar
    55    32    35   ar
    56    32    36   ar
    57    33    37   ar
    58    33    59    1
    59    34    38   ar
    60    34    60    1
    61    35    40   ar
    62    35    61    1
    63    36    41   ar
    64    36    62    1
    65    37    39   ar
    66    37    63    1
    67    38    39   ar
    68    38    64    1
    69    40    42   ar
    70    40    65    1
    71    41    42   ar
    72    41    66    1
