@<TRIPOS>MOLECULE
IMPHY000814
 63 65 0 0 0
SMALL
GASTEIGER

@<TRIPOS>ATOM
      1 O           4.4094   -0.8604    0.0000 O.3     1  UNL1       -0.3560
      2 O           4.9613    1.6140    0.0000 O.3     1  UNL1       -0.3774
      3 O           7.9014   -0.8257    0.0000 O.3     1  UNL1       -0.3877
      4 O           6.1694   -1.8257    0.0000 O.3     1  UNL1       -0.4559
      5 O           5.2816    2.7058    0.0000 O.3     1  UNL1       -0.3911
      6 O           3.5492    1.7189    0.0000 O.2     1  UNL1       -0.2941
      7 O           7.9014   -1.8257    0.0000 O.2     1  UNL1       -0.2512
      8 C           6.1694    1.1743    0.0000 C.3     1  UNL1        0.0381
      9 C           7.0354    0.6743    0.0000 C.3     1  UNL1        0.0046
     10 C           5.3033    0.6743    0.0000 C.3     1  UNL1        0.1635
     11 C           5.3033   -0.3257    0.0000 C.3     1  UNL1        0.1428
     12 C           7.9454    1.1811    0.0000 C.3     1  UNL1       -0.0288
     13 C           7.0354   -0.3257    0.0000 C.3     1  UNL1        0.0989
     14 C           6.1533    2.2158    0.0000 C.3     1  UNL1        0.0641
     15 C           6.1694   -0.8257    0.0000 C.3     1  UNL1        0.1606
     16 C           7.9534    2.2227    0.0000 C.3     1  UNL1       -0.0452
     17 C           7.0513    2.7436    0.0000 C.3     1  UNL1       -0.0257
     18 C           5.5266    1.9403    0.0000 C.3     1  UNL1       -0.0537
     19 C           4.4094    1.2090    0.0000 C.2     1  UNL1        0.1712
     20 C           5.3033   -1.3257    0.0000 C.3     1  UNL1       -0.0290
     21 C           8.9453    1.1696    0.0000 C.3     1  UNL1       -0.0595
     22 C           8.4353    0.3094    0.0000 C.3     1  UNL1       -0.0595
     23 C           3.5033   -0.3465    0.0000 C.3     1  UNL1        0.0923
     24 C           3.5033    0.6951    0.0000 C.3     1  UNL1        0.0413
     25 C           3.0067   -1.2145    0.0000 C.3     1  UNL1       -0.0318
     26 C           2.5033   -0.3504    0.0000 C.2     1  UNL1       -0.0595
     27 C           7.0354   -2.3257    0.0000 C.2     1  UNL1        0.3044
     28 C           2.0000    0.5137    0.0000 C.2     1  UNL1       -0.0999
     29 C           7.0354   -3.3257    0.0000 C.3     1  UNL1        0.0332
     30 H           7.7682    0.2436    0.0000 H       1  UNL1        0.0339
     31 H           7.5723   -0.0157    0.0000 H       1  UNL1        0.0634
     32 H           6.1473    2.8358    0.0000 H       1  UNL1        0.0600
     33 H           6.7063   -1.1357    0.0000 H       1  UNL1        0.0791
     34 H           8.5634    2.1119    0.0000 H       1  UNL1        0.0271
     35 H           8.1670    2.8048    0.0000 H       1  UNL1        0.0271
     36 H           7.4486    3.2195    0.0000 H       1  UNL1        0.0290
     37 H           6.6504    3.2164    0.0000 H       1  UNL1        0.0290
     38 H           6.0015    2.3389    0.0000 H       1  UNL1        0.0237
     39 H           5.1280    2.4153    0.0000 H       1  UNL1        0.0237
     40 H           5.0516    1.5418    0.0000 H       1  UNL1        0.0237
     41 H           4.6833   -1.3257    0.0000 H       1  UNL1        0.0260
     42 H           5.3033   -1.9457    0.0000 H       1  UNL1        0.0260
     43 H           5.9233   -1.3257    0.0000 H       1  UNL1        0.0260
     44 H           8.9382    0.5496    0.0000 H       1  UNL1        0.0235
     45 H           9.5653    1.1624    0.0000 H       1  UNL1        0.0235
     46 H           8.9525    1.7895    0.0000 H       1  UNL1        0.0235
     47 H           7.8949    0.0056    0.0000 H       1  UNL1        0.0235
     48 H           8.7391   -0.2311    0.0000 H       1  UNL1        0.0235
     49 H           8.9758    0.6132    0.0000 H       1  UNL1        0.0235
     50 H           3.2943    1.2788    0.0000 H       1  UNL1        0.0374
     51 H           2.8925    0.5890    0.0000 H       1  UNL1        0.0374
     52 H           4.4864    2.0125    0.0000 H       1  UNL1        0.2109
     53 H           8.4384   -0.5157    0.0000 H       1  UNL1        0.2100
     54 H           5.2744    3.3257    0.0000 H       1  UNL1        0.2098
     55 H           2.4685   -0.9065    0.0000 H       1  UNL1        0.0261
     56 H           2.6987   -1.7526    0.0000 H       1  UNL1        0.0261
     57 H           3.5448   -1.5224    0.0000 H       1  UNL1        0.0261
     58 H           2.1954   -0.8885    0.0000 H       1  UNL1        0.0595
     59 H           2.3079    1.0518    0.0000 H       1  UNL1        0.0533
     60 H           1.3800    0.5113    0.0000 H       1  UNL1        0.0533
     61 H           6.4154   -3.3257    0.0000 H       1  UNL1        0.0342
     62 H           7.0354   -3.9457    0.0000 H       1  UNL1        0.0342
     63 H           7.6554   -3.3257    0.0000 H       1  UNL1        0.0342
@<TRIPOS>BOND
     1     1    11    1
     2     1    23    1
     3    10     2    1
     4     2    52    1
     5    13     3    1
     6     3    53    1
     7    15     4    1
     8     4    27    1
     9    14     5    1
    10     5    54    1
    11     6    19    2
    12     7    27    2
    13     8     9    1
    14     8    10    1
    15     8    14    1
    16     8    18    1
    17     9    12    1
    18     9    13    1
    19     9    30    1
    20    10    11    1
    21    10    19    1
    22    11    15    1
    23    11    20    1
    24    12    16    1
    25    12    21    1
    26    12    22    1
    27    13    15    1
    28    13    31    1
    29    14    17    1
    30    14    32    1
    31    15    33    1
    32    16    17    1
    33    16    34    1
    34    16    35    1
    35    17    36    1
    36    17    37    1
    37    18    38    1
    38    18    39    1
    39    18    40    1
    40    19    24    1
    41    20    41    1
    42    20    42    1
    43    20    43    1
    44    21    44    1
    45    21    45    1
    46    21    46    1
    47    22    47    1
    48    22    48    1
    49    22    49    1
    50    23    24    1
    51    23    25    1
    52    23    26    1
    53    24    50    1
    54    24    51    1
    55    25    55    1
    56    25    56    1
    57    25    57    1
    58    26    28    2
    59    26    58    1
    60    27    29    1
    61    28    59    1
    62    28    60    1
    63    29    61    1
    64    29    62    1
    65    29    63    1
