@<TRIPOS>MOLECULE
IMPHY005497
 27 27 0 0 0
SMALL
GASTEIGER

@<TRIPOS>ATOM
      1 C           3.7320    1.7500    0.0000 C.3     1  UNL1       -0.0427
      2 C           2.8660    1.2500    0.0000 C.3     1  UNL1       -0.0253
      3 C           2.8660    0.2500    0.0000 C.ar    1  UNL1       -0.0471
      4 C           3.7320    2.7500    0.0000 C.3     1  UNL1       -0.0624
      5 C           4.5981    1.2500    0.0000 C.3     1  UNL1       -0.0624
      6 C           2.0000   -0.2500    0.0000 C.ar    1  UNL1       -0.0583
      7 C           3.7320   -0.2500    0.0000 C.ar    1  UNL1       -0.0583
      8 C           2.8660   -1.7500    0.0000 C.ar    1  UNL1       -0.0504
      9 C           2.0000   -1.2500    0.0000 C.ar    1  UNL1       -0.0586
     10 C           3.7320   -1.2500    0.0000 C.ar    1  UNL1       -0.0586
     11 C           2.8660   -2.7500    0.0000 C.3     1  UNL1       -0.0397
     12 H           3.7320    1.1300    0.0000 H       1  UNL1        0.0299
     13 H           2.6540    1.8326    0.0000 H       1  UNL1        0.0316
     14 H           2.2554    1.1423    0.0000 H       1  UNL1        0.0316
     15 H           4.3520    2.7500    0.0000 H       1  UNL1        0.0232
     16 H           3.7320    3.3700    0.0000 H       1  UNL1        0.0232
     17 H           3.1120    2.7500    0.0000 H       1  UNL1        0.0232
     18 H           4.2881    0.7131    0.0000 H       1  UNL1        0.0232
     19 H           5.1350    0.9400    0.0000 H       1  UNL1        0.0232
     20 H           4.9081    1.7869    0.0000 H       1  UNL1        0.0232
     21 H           1.4631    0.0600    0.0000 H       1  UNL1        0.0620
     22 H           4.2690    0.0600    0.0000 H       1  UNL1        0.0620
     23 H           1.4631   -1.5600    0.0000 H       1  UNL1        0.0620
     24 H           4.2690   -1.5600    0.0000 H       1  UNL1        0.0620
     25 H           2.2460   -2.7500    0.0000 H       1  UNL1        0.0278
     26 H           2.8660   -3.3700    0.0000 H       1  UNL1        0.0278
     27 H           3.4860   -2.7500    0.0000 H       1  UNL1        0.0278
@<TRIPOS>BOND
     1     1     2    1
     2     1     4    1
     3     1     5    1
     4     1    12    1
     5     2     3    1
     6     2    13    1
     7     2    14    1
     8     3     6   ar
     9     3     7   ar
    10     4    15    1
    11     4    16    1
    12     4    17    1
    13     5    18    1
    14     5    19    1
    15     5    20    1
    16     6     9   ar
    17     6    21    1
    18     7    10   ar
    19     7    22    1
    20     8     9   ar
    21     8    10   ar
    22     8    11    1
    23     9    23    1
    24    10    24    1
    25    11    25    1
    26    11    26    1
    27    11    27    1
