@<TRIPOS>MOLECULE
IMPHY003042
 47 46 0 0 0
SMALL
GASTEIGER

@<TRIPOS>ATOM
      1 C           8.9282   -0.2500    0.0000 C.3     1  UNL1       -0.0439
      2 C           8.0622    0.2500    0.0000 C.3     1  UNL1       -0.0505
      3 C           9.7942    0.2500    0.0000 C.3     1  UNL1       -0.0502
      4 C           7.1962   -0.2500    0.0000 C.3     1  UNL1       -0.0528
      5 C          10.6603   -0.2500    0.0000 C.3     1  UNL1       -0.0505
      6 C           6.3301    0.2500    0.0000 C.3     1  UNL1       -0.0530
      7 C          11.5263    0.2500    0.0000 C.3     1  UNL1       -0.0467
      8 C           8.9282   -1.2500    0.0000 C.3     1  UNL1       -0.0624
      9 C           5.4641   -0.2500    0.0000 C.3     1  UNL1       -0.0531
     10 C           4.5981    0.2500    0.0000 C.3     1  UNL1       -0.0531
     11 C           3.7320   -0.2500    0.0000 C.3     1  UNL1       -0.0533
     12 C          12.3923   -0.2500    0.0000 C.3     1  UNL1       -0.0627
     13 C          11.5263    1.2500    0.0000 C.3     1  UNL1       -0.0627
     14 C           2.8660    0.2500    0.0000 C.3     1  UNL1       -0.0559
     15 C           2.0000   -0.2500    0.0000 C.3     1  UNL1       -0.0653
     16 H           9.4651   -0.5600    0.0000 H       1  UNL1        0.0298
     17 H           8.4607    0.7249    0.0000 H       1  UNL1        0.0268
     18 H           7.6636    0.7249    0.0000 H       1  UNL1        0.0268
     19 H          10.1928    0.7249    0.0000 H       1  UNL1        0.0268
     20 H           9.3957    0.7249    0.0000 H       1  UNL1        0.0268
     21 H           6.7976   -0.7249    0.0000 H       1  UNL1        0.0265
     22 H           7.5947   -0.7249    0.0000 H       1  UNL1        0.0265
     23 H          10.2617   -0.7249    0.0000 H       1  UNL1        0.0268
     24 H          11.0588   -0.7249    0.0000 H       1  UNL1        0.0268
     25 H           6.7287    0.7249    0.0000 H       1  UNL1        0.0265
     26 H           5.9316    0.7249    0.0000 H       1  UNL1        0.0265
     27 H          12.0632    0.5600    0.0000 H       1  UNL1        0.0295
     28 H           5.0656   -0.7249    0.0000 H       1  UNL1        0.0265
     29 H           5.8626   -0.7249    0.0000 H       1  UNL1        0.0265
     30 H           8.3082   -1.2500    0.0000 H       1  UNL1        0.0232
     31 H           8.9282   -1.8700    0.0000 H       1  UNL1        0.0232
     32 H           9.5482   -1.2500    0.0000 H       1  UNL1        0.0232
     33 H           4.9966    0.7249    0.0000 H       1  UNL1        0.0265
     34 H           4.1996    0.7249    0.0000 H       1  UNL1        0.0265
     35 H           3.3335   -0.7249    0.0000 H       1  UNL1        0.0265
     36 H           4.1306   -0.7249    0.0000 H       1  UNL1        0.0265
     37 H          12.0823   -0.7869    0.0000 H       1  UNL1        0.0232
     38 H          12.9292   -0.5600    0.0000 H       1  UNL1        0.0232
     39 H          12.7023    0.2869    0.0000 H       1  UNL1        0.0232
     40 H          12.1463    1.2500    0.0000 H       1  UNL1        0.0232
     41 H          11.5263    1.8700    0.0000 H       1  UNL1        0.0232
     42 H          10.9063    1.2500    0.0000 H       1  UNL1        0.0232
     43 H           3.2646    0.7249    0.0000 H       1  UNL1        0.0263
     44 H           2.4675    0.7249    0.0000 H       1  UNL1        0.0263
     45 H           1.6900    0.2869    0.0000 H       1  UNL1        0.0230
     46 H           1.4631   -0.5600    0.0000 H       1  UNL1        0.0230
     47 H           2.3100   -0.7869    0.0000 H       1  UNL1        0.0230
@<TRIPOS>BOND
     1     1     2    1
     2     1     3    1
     3     1     8    1
     4     1    16    1
     5     2     4    1
     6     2    17    1
     7     2    18    1
     8     3     5    1
     9     3    19    1
    10     3    20    1
    11     4     6    1
    12     4    21    1
    13     4    22    1
    14     5     7    1
    15     5    23    1
    16     5    24    1
    17     6     9    1
    18     6    25    1
    19     6    26    1
    20     7    12    1
    21     7    13    1
    22     7    27    1
    23     8    30    1
    24     8    31    1
    25     8    32    1
    26     9    10    1
    27     9    28    1
    28     9    29    1
    29    10    11    1
    30    10    33    1
    31    10    34    1
    32    11    14    1
    33    11    35    1
    34    11    36    1
    35    12    37    1
    36    12    38    1
    37    12    39    1
    38    13    40    1
    39    13    41    1
    40    13    42    1
    41    14    15    1
    42    14    43    1
    43    14    44    1
    44    15    45    1
    45    15    46    1
    46    15    47    1
