@<TRIPOS>MOLECULE
IMPHY003002
 32 33 0 0 0
SMALL
GASTEIGER

@<TRIPOS>ATOM
      1 O           6.3301   -1.8450    0.0000 O.2     1  UNL1       -0.5058
      2 O           4.5981    1.1550    0.0000 O.2     1  UNL1       -0.2834
      3 O           6.3301    2.1550    0.0000 O.2     1  UNL1       -0.2832
      4 C           5.4641   -0.3450    0.0000 C.2     1  UNL1        0.0488
      5 C           7.1962   -0.3450    0.0000 C.ar    1  UNL1        0.0277
      6 C           4.5981   -0.8450    0.0000 C.3     1  UNL1       -0.0020
      7 C           6.3301   -0.8450    0.0000 C.2     1  UNL1        0.1319
      8 C           7.1962    0.6550    0.0000 C.ar    1  UNL1        0.0362
      9 C           5.4641    0.6550    0.0000 C.2     1  UNL1        0.2328
     10 C           6.3301    1.1550    0.0000 C.2     1  UNL1        0.2334
     11 C           3.7320   -0.3450    0.0000 C.2     1  UNL1       -0.0807
     12 C           8.0901   -0.8797    0.0000 C.ar    1  UNL1       -0.0504
     13 C           8.0901    1.1897    0.0000 C.ar    1  UNL1       -0.0501
     14 C           2.8660   -0.8450    0.0000 C.2     1  UNL1       -0.0793
     15 C           8.9962   -0.3658    0.0000 C.ar    1  UNL1       -0.0611
     16 C           8.9962    0.6758    0.0000 C.ar    1  UNL1       -0.0610
     17 C           2.0000   -0.3450    0.0000 C.3     1  UNL1       -0.0440
     18 C           2.8660   -1.8450    0.0000 C.3     1  UNL1       -0.0440
     19 H           4.1996   -1.3200    0.0000 H       1  UNL1        0.0358
     20 H           4.9966   -1.3200    0.0000 H       1  UNL1        0.0358
     21 H           3.7320    0.2750    0.0000 H       1  UNL1        0.0575
     22 H           8.0829   -1.4996    0.0000 H       1  UNL1        0.0625
     23 H           8.0829    1.8096    0.0000 H       1  UNL1        0.0625
     24 H           9.5319   -0.6779    0.0000 H       1  UNL1        0.0618
     25 H           9.5319    0.9879    0.0000 H       1  UNL1        0.0618
     26 H           2.2460   -1.8450    0.0000 H       1  UNL1        0.0274
     27 H           2.8660   -2.4650    0.0000 H       1  UNL1        0.0274
     28 H           2.3100    0.1919    0.0000 H       1  UNL1        0.0274
     29 H           1.4631   -0.0350    0.0000 H       1  UNL1        0.0274
     30 H           1.6900   -0.8819    0.0000 H       1  UNL1        0.0274
     31 H           3.4860   -1.8450    0.0000 H       1  UNL1        0.0274
     32 H           5.7932   -2.1550    0.0000 H       1  UNL1        0.2922
@<TRIPOS>BOND
     1     1     7    1
     2     1    32    1
     3     2     9    2
     4     3    10    2
     5     4     6    1
     6     4     7    2
     7     4     9    1
     8     5     7    1
     9     5     8   ar
    10     5    12   ar
    11     6    11    1
    12     6    19    1
    13     6    20    1
    14     8    10    1
    15     8    13   ar
    16     9    10    1
    17    11    14    2
    18    11    21    1
    19    12    15   ar
    20    12    22    1
    21    13    16   ar
    22    13    23    1
    23    14    17    1
    24    14    18    1
    25    15    16   ar
    26    15    24    1
    27    16    25    1
    28    17    28    1
    29    17    29    1
    30    17    30    1
    31    18    26    1
    32    18    27    1
    33    18    31    1
