@<TRIPOS>MOLECULE
IMPHY007181
 47 48 0 0 0
SMALL
GASTEIGER

@<TRIPOS>ATOM
      1 O           7.2622   -1.4924    0.0000 O.3     1  UNL1       -0.4812
      2 O           5.5138    1.5422    0.0000 O.3     1  UNL1       -0.5060
      3 C           8.1282   -0.9924    0.0000 C.3     1  UNL1        0.1266
      4 C           9.1282   -0.9924    0.0000 C.3     1  UNL1       -0.0060
      5 C           8.1282    0.0076    0.0000 C.2     1  UNL1       -0.0405
      6 C           8.6282   -1.8584    0.0000 C.3     1  UNL1       -0.0212
      7 C           9.6282   -0.1264    0.0000 C.3     1  UNL1       -0.0306
      8 C           6.3961   -0.9924    0.0000 C.ar    1  UNL1        0.1326
      9 C           6.3961    0.0076    0.0000 C.ar    1  UNL1        0.0579
     10 C           7.2622    0.5076    0.0000 C.2     1  UNL1       -0.0478
     11 C           4.5961   -1.0132    0.0000 C.ar    1  UNL1       -0.0404
     12 C           5.5022   -1.5270    0.0000 C.ar    1  UNL1       -0.0159
     13 C           5.5022    0.5423    0.0000 C.ar    1  UNL1        0.1277
     14 C           3.7320   -1.5165    0.0000 C.3     1  UNL1       -0.0277
     15 C          10.6282   -0.1264    0.0000 C.2     1  UNL1       -0.0851
     16 C           4.5961    0.0284    0.0000 C.ar    1  UNL1       -0.0162
     17 C           2.8641   -1.0199    0.0000 C.3     1  UNL1       -0.0519
     18 C          11.1282    0.7397    0.0000 C.2     1  UNL1       -0.0796
     19 C           2.0000   -1.5232    0.0000 C.3     1  UNL1       -0.0650
     20 C          12.1282    0.7397    0.0000 C.3     1  UNL1       -0.0440
     21 C          10.6282    1.6057    0.0000 C.3     1  UNL1       -0.0440
     22 H           9.0205   -1.6030    0.0000 H       1  UNL1        0.0310
     23 H           9.7108   -1.2044    0.0000 H       1  UNL1        0.0310
     24 H           8.6651    0.3176    0.0000 H       1  UNL1        0.0611
     25 H           8.0912   -2.1684    0.0000 H       1  UNL1        0.0271
     26 H           8.9382   -2.3953    0.0000 H       1  UNL1        0.0271
     27 H           9.1651   -1.5484    0.0000 H       1  UNL1        0.0271
     28 H           9.7358    0.4842    0.0000 H       1  UNL1        0.0309
     29 H           9.0456    0.0857    0.0000 H       1  UNL1        0.0309
     30 H           7.2622    1.1276    0.0000 H       1  UNL1        0.0624
     31 H           5.5094   -2.1470    0.0000 H       1  UNL1        0.0657
     32 H           3.3353   -1.9930    0.0000 H       1  UNL1        0.0313
     33 H           4.1324   -1.9899    0.0000 H       1  UNL1        0.0313
     34 H          10.9382   -0.6633    0.0000 H       1  UNL1        0.0571
     35 H           4.0604    0.3405    0.0000 H       1  UNL1        0.0657
     36 H           3.2608   -0.5434    0.0000 H       1  UNL1        0.0266
     37 H           2.4637   -0.5465    0.0000 H       1  UNL1        0.0266
     38 H           1.6879   -0.9875    0.0000 H       1  UNL1        0.0230
     39 H           1.4643   -1.8353    0.0000 H       1  UNL1        0.0230
     40 H           2.3121   -2.0589    0.0000 H       1  UNL1        0.0230
     41 H           4.9804    1.8584    0.0000 H       1  UNL1        0.2922
     42 H          12.1282    0.1197    0.0000 H       1  UNL1        0.0274
     43 H          12.7482    0.7397    0.0000 H       1  UNL1        0.0274
     44 H          12.1282    1.3597    0.0000 H       1  UNL1        0.0274
     45 H          11.1651    1.9157    0.0000 H       1  UNL1        0.0274
     46 H          10.3182    2.1426    0.0000 H       1  UNL1        0.0274
     47 H          10.0913    1.2957    0.0000 H       1  UNL1        0.0274
@<TRIPOS>BOND
     1     1     3    1
     2     1     8    1
     3     2    13    1
     4     2    41    1
     5     3     4    1
     6     3     5    1
     7     3     6    1
     8     4     7    1
     9     4    22    1
    10     4    23    1
    11     5    10    2
    12     5    24    1
    13     6    25    1
    14     6    26    1
    15     6    27    1
    16     7    15    1
    17     7    28    1
    18     7    29    1
    19     8     9   ar
    20     8    12   ar
    21     9    10    1
    22     9    13   ar
    23    10    30    1
    24    11    12   ar
    25    11    14    1
    26    11    16   ar
    27    12    31    1
    28    13    16   ar
    29    14    17    1
    30    14    32    1
    31    14    33    1
    32    15    18    2
    33    15    34    1
    34    16    35    1
    35    17    19    1
    36    17    36    1
    37    17    37    1
    38    18    20    1
    39    18    21    1
    40    19    38    1
    41    19    39    1
    42    19    40    1
    43    20    42    1
    44    20    43    1
    45    20    44    1
    46    21    45    1
    47    21    46    1
    48    21    47    1
