@<TRIPOS>MOLECULE
IMPHY005478
 47 53 0 0 0
SMALL
GASTEIGER

@<TRIPOS>ATOM
      1 O           6.8022   -2.0387    0.0000 O.3     1  UNL1       -0.3717
      2 O           3.5351   -2.0766    0.0000 O.2     1  UNL1       -0.2752
      3 N           5.8097    2.1000    0.0000 N.3     1  UNL1       -0.2946
      4 N           4.4011   -0.6524    0.0000 N.am    1  UNL1       -0.2667
      5 C           5.2014    0.7339    0.0000 C.3     1  UNL1        0.0335
      6 C           5.2014   -0.1903    0.0000 C.3     1  UNL1        0.0479
      7 C           6.0018    1.1960    0.0000 C.3     1  UNL1        0.0227
      8 C           6.0018   -0.6524    0.0000 C.3     1  UNL1        0.0122
      9 C           6.8022   -0.1903    0.0000 C.3     1  UNL1       -0.0103
     10 C           6.8022    0.7339    0.0000 C.3     1  UNL1       -0.0295
     11 C           4.5146    1.3523    0.0000 C.3     1  UNL1       -0.0273
     12 C           3.6007    0.7339    0.0000 C.ar    1  UNL1       -0.0165
     13 C           4.8906    2.1965    0.0000 C.3     1  UNL1        0.0004
     14 C           6.0018   -1.5766    0.0000 C.3     1  UNL1        0.0724
     15 C           7.6625   -0.5279    0.0000 C.2     1  UNL1       -0.0538
     16 C           7.6266    1.2986    0.0000 C.3     1  UNL1        0.0207
     17 C           3.6007   -0.1903    0.0000 C.ar    1  UNL1        0.0404
     18 C           5.2014   -2.0387    0.0000 C.3     1  UNL1        0.0511
     19 C           4.4011   -1.5766    0.0000 C.2     1  UNL1        0.2225
     20 C           7.9758   -1.1658    0.0000 C.2     1  UNL1       -0.0579
     21 C           2.8004    1.1960    0.0000 C.ar    1  UNL1       -0.0562
     22 C           7.5239   -2.0284    0.0000 C.3     1  UNL1        0.0665
     23 C           2.8004   -0.6524    0.0000 C.ar    1  UNL1       -0.0400
     24 C           2.0000    0.7339    0.0000 C.ar    1  UNL1       -0.0614
     25 C           2.0000   -0.1903    0.0000 C.ar    1  UNL1       -0.0600
     26 H           5.2040   -1.0403    0.0000 H       1  UNL1        0.0517
     27 H           6.7442    1.6098    0.0000 H       1  UNL1        0.0472
     28 H           6.7379   -1.0774    0.0000 H       1  UNL1        0.0350
     29 H           7.5045    0.2885    0.0000 H       1  UNL1        0.0351
     30 H           7.4128    0.6262    0.0000 H       1  UNL1        0.0286
     31 H           7.0142    1.3165    0.0000 H       1  UNL1        0.0286
     32 H           3.9777    1.6623    0.0000 H       1  UNL1        0.0287
     33 H           4.1502    0.8507    0.0000 H       1  UNL1        0.0287
     34 H           5.0194    2.8030    0.0000 H       1  UNL1        0.0427
     35 H           4.3009    2.3881    0.0000 H       1  UNL1        0.0427
     36 H           5.9945   -2.4265    0.0000 H       1  UNL1        0.0604
     37 H           8.2418    1.2211    0.0000 H       1  UNL1        0.0473
     38 H           7.7922    1.8961    0.0000 H       1  UNL1        0.0473
     39 H           4.8029   -2.5136    0.0000 H       1  UNL1        0.0384
     40 H           5.6000   -2.5136    0.0000 H       1  UNL1        0.0384
     41 H           8.5957   -1.1739    0.0000 H       1  UNL1        0.0595
     42 H           2.8004    1.8160    0.0000 H       1  UNL1        0.0621
     43 H           7.4305   -2.6413    0.0000 H       1  UNL1        0.0604
     44 H           8.1131   -2.2216    0.0000 H       1  UNL1        0.0604
     45 H           2.8004   -1.2724    0.0000 H       1  UNL1        0.0636
     46 H           1.4631    1.0439    0.0000 H       1  UNL1        0.0618
     47 H           1.4631   -0.5003    0.0000 H       1  UNL1        0.0618
@<TRIPOS>BOND
     1     1    14    1
     2     1    22    1
     3     2    19    2
     4     3     7    1
     5     3    13    1
     6     3    16    1
     7     4     6    1
     8     4    17    1
     9     4    19   am
    10     5     6    1
    11     5     7    1
    12     5    11    1
    13     5    12    1
    14     6     8    1
    15     6    26    1
    16     7    10    1
    17     7    27    1
    18     8     9    1
    19     8    14    1
    20     8    28    1
    21     9    10    1
    22     9    15    1
    23     9    29    1
    24    10    30    1
    25    10    31    1
    26    11    13    1
    27    11    32    1
    28    11    33    1
    29    12    17   ar
    30    12    21   ar
    31    13    34    1
    32    13    35    1
    33    14    18    1
    34    14    36    1
    35    15    16    1
    36    15    20    2
    37    16    37    1
    38    16    38    1
    39    17    23   ar
    40    18    19    1
    41    18    39    1
    42    18    40    1
    43    20    22    1
    44    20    41    1
    45    21    24   ar
    46    21    42    1
    47    22    43    1
    48    22    44    1
    49    23    25   ar
    50    23    45    1
    51    24    25   ar
    52    24    46    1
    53    25    47    1
