@<TRIPOS>MOLECULE
IMPHY003767
 118 125 0 0 0
SMALL
GASTEIGER

@<TRIPOS>ATOM
      1 O          18.3182    1.8777    0.0000 O.3     1  UNL1       -0.3877
      2 O          12.9292    2.9508    0.0000 O.3     1  UNL1       -0.3480
      3 O          20.5108   -2.6934    0.0000 O.3     1  UNL1       -0.4571
      4 O          11.1972    2.9508    0.0000 O.3     1  UNL1       -0.3456
      5 O          19.2481   -3.9508    0.0000 O.2     1  UNL1       -0.2456
      6 O          11.1972   -0.0492    0.0000 O.3     1  UNL1       -0.3890
      7 O           9.4651    0.9508    0.0000 O.3     1  UNL1       -0.3429
      8 O           8.5991    2.4508    0.0000 O.3     1  UNL1       -0.3456
      9 O           6.0010    2.9508    0.0000 O.3     1  UNL1       -0.3429
     10 O           6.0010    0.9508    0.0000 O.3     1  UNL1       -0.3890
     11 O           5.1350    1.4508    0.0000 O.3     1  UNL1       -0.3456
     12 O           2.5369    2.9508    0.0000 O.3     1  UNL1       -0.3890
     13 O           2.5369    0.9508    0.0000 O.3     1  UNL1       -0.3867
     14 C          18.3144    0.8777    0.0000 C.3     1  UNL1        0.0751
     15 C          17.4503    1.3810    0.0000 C.3     1  UNL1       -0.0083
     16 C          16.5823    0.8844    0.0000 C.3     1  UNL1       -0.0299
     17 C          18.3105   -0.1223    0.0000 C.3     1  UNL1        0.0036
     18 C          15.6743    1.3947    0.0000 C.3     1  UNL1       -0.0259
     19 C          15.6703    2.4364    0.0000 C.3     1  UNL1       -0.0330
     20 C          16.5785   -0.1156    0.0000 C.3     1  UNL1       -0.0488
     21 C          17.4426   -0.6189    0.0000 C.3     1  UNL1       -0.0442
     22 C          19.2556   -0.4307    0.0000 C.3     1  UNL1       -0.0081
     23 C          17.4704    2.4225    0.0000 C.3     1  UNL1       -0.0470
     24 C          19.2618    1.1788    0.0000 C.3     1  UNL1       -0.0226
     25 C          16.5744    2.9537    0.0000 C.3     1  UNL1       -0.0493
     26 C          19.8423    0.3718    0.0000 C.3     1  UNL1       -0.0432
     27 C          14.7453    0.8342    0.0000 C.3     1  UNL1       -0.0448
     28 C          14.7370    2.9897    0.0000 C.3     1  UNL1       -0.0232
     29 C          18.3067   -1.1223    0.0000 C.3     1  UNL1       -0.0564
     30 C          15.6782    0.3947    0.0000 C.3     1  UNL1       -0.0590
     31 C          13.7994    1.3658    0.0000 C.3     1  UNL1       -0.0260
     32 C          13.7953    2.4508    0.0000 C.3     1  UNL1        0.0620
     33 C          19.5626   -1.3824    0.0000 C.2     1  UNL1       -0.0222
     34 C          20.5130   -1.6934    0.0000 C.3     1  UNL1        0.1147
     35 C          18.9731   -2.1901    0.0000 C.2     1  UNL1        0.0252
     36 C          12.0632    2.4508    0.0000 C.3     1  UNL1        0.1624
     37 C          19.5591   -3.0004    0.0000 C.2     1  UNL1        0.3323
     38 C          12.0632    1.4508    0.0000 C.3     1  UNL1        0.0270
     39 C          11.1972    0.9508    0.0000 C.3     1  UNL1        0.0884
     40 C          10.3312    2.4508    0.0000 C.3     1  UNL1        0.0875
     41 C          10.3312    1.4508    0.0000 C.3     1  UNL1        0.1134
     42 C           9.4651    2.9508    0.0000 C.3     1  UNL1       -0.0361
     43 C           8.5991    1.4508    0.0000 C.3     1  UNL1        0.1626
     44 C           7.7331    0.9508    0.0000 C.3     1  UNL1        0.0270
     45 C           6.8671    1.4508    0.0000 C.3     1  UNL1        0.0884
     46 C           7.7331    2.9508    0.0000 C.3     1  UNL1        0.0875
     47 C           6.8671    2.4508    0.0000 C.3     1  UNL1        0.1134
     48 C           7.7331    3.9508    0.0000 C.3     1  UNL1       -0.0361
     49 C           5.1350    2.4508    0.0000 C.3     1  UNL1        0.1626
     50 C           4.2690    2.9508    0.0000 C.3     1  UNL1        0.0270
     51 C           3.4030    2.4508    0.0000 C.3     1  UNL1        0.0881
     52 C           4.2690    0.9508    0.0000 C.3     1  UNL1        0.0871
     53 C           3.4030    1.4508    0.0000 C.3     1  UNL1        0.1070
     54 C           4.2690   -0.0492    0.0000 C.3     1  UNL1       -0.0361
     55 H          18.1913    1.7975    0.0000 H       1  UNL1        0.0331
     56 H          17.3168    0.4565    0.0000 H       1  UNL1        0.0310
     57 H          15.6768    3.2863    0.0000 H       1  UNL1        0.0307
     58 H          15.9683   -0.0056    0.0000 H       1  UNL1        0.0268
     59 H          16.3642   -0.6974    0.0000 H       1  UNL1        0.0268
     60 H          17.0422   -1.0924    0.0000 H       1  UNL1        0.0272
     61 H          17.8393   -1.0954    0.0000 H       1  UNL1        0.0272
     62 H          19.8677   -0.5292    0.0000 H       1  UNL1        0.0353
     63 H          18.0791    2.3046    0.0000 H       1  UNL1        0.0269
     64 H          17.6906    3.0020    0.0000 H       1  UNL1        0.0269
     65 H          19.8003    1.4859    0.0000 H       1  UNL1        0.0293
     66 H          19.0129    1.7466    0.0000 H       1  UNL1        0.0293
     67 H          16.9771    3.4250    0.0000 H       1  UNL1        0.0268
     68 H          16.1789    3.4312    0.0000 H       1  UNL1        0.0268
     69 H          20.3015   -0.0447    0.0000 H       1  UNL1        0.0272
     70 H          20.3047    0.7848    0.0000 H       1  UNL1        0.0272
     71 H          14.3535    0.3537    0.0000 H       1  UNL1        0.0271
     72 H          15.1517    0.3660    0.0000 H       1  UNL1        0.0271
     73 H          15.1398    3.4610    0.0000 H       1  UNL1        0.0293
     74 H          14.3415    3.4672    0.0000 H       1  UNL1        0.0293
     75 H          17.6867   -1.1199    0.0000 H       1  UNL1        0.0236
     76 H          18.3043   -1.7423    0.0000 H       1  UNL1        0.0236
     77 H          18.9267   -1.1247    0.0000 H       1  UNL1        0.0236
     78 H          15.0582    0.3923    0.0000 H       1  UNL1        0.0235
     79 H          15.6805   -0.2253    0.0000 H       1  UNL1        0.0235
     80 H          16.2981    0.3971    0.0000 H       1  UNL1        0.0235
     81 H          13.1882    1.4696    0.0000 H       1  UNL1        0.0290
     82 H          13.5926    0.7813    0.0000 H       1  UNL1        0.0290
     83 H          13.7965    3.0708    0.0000 H       1  UNL1        0.0597
     84 H          18.8564    2.1856    0.0000 H       1  UNL1        0.2102
     85 H          21.1294   -1.7595    0.0000 H       1  UNL1        0.0746
     86 H          20.6431   -1.0872    0.0000 H       1  UNL1        0.0746
     87 H          18.3531   -2.1888    0.0000 H       1  UNL1        0.0689
     88 H          12.6002    2.1408    0.0000 H       1  UNL1        0.0910
     89 H          12.2753    0.8682    0.0000 H       1  UNL1        0.0340
     90 H          12.6738    1.5585    0.0000 H       1  UNL1        0.0340
     91 H          11.7341    0.6408    0.0000 H       1  UNL1        0.0622
     92 H          10.3312    3.0708    0.0000 H       1  UNL1        0.0621
     93 H           9.7942    1.7608    0.0000 H       1  UNL1        0.0649
     94 H           9.7751    3.4877    0.0000 H       1  UNL1        0.0255
     95 H           8.9282    3.2608    0.0000 H       1  UNL1        0.0255
     96 H           9.1551    2.4139    0.0000 H       1  UNL1        0.0255
     97 H          11.7341   -0.3592    0.0000 H       1  UNL1        0.2099
     98 H           8.5991    0.8308    0.0000 H       1  UNL1        0.0910
     99 H           7.3346    0.4759    0.0000 H       1  UNL1        0.0340
    100 H           8.1316    0.4759    0.0000 H       1  UNL1        0.0340
    101 H           6.3301    1.7608    0.0000 H       1  UNL1        0.0622
    102 H           8.2700    3.2608    0.0000 H       1  UNL1        0.0621
    103 H           6.8671    3.0708    0.0000 H       1  UNL1        0.0649
    104 H           8.3531    3.9508    0.0000 H       1  UNL1        0.0255
    105 H           7.7331    4.5708    0.0000 H       1  UNL1        0.0255
    106 H           7.1131    3.9508    0.0000 H       1  UNL1        0.0255
    107 H           6.0010    0.3308    0.0000 H       1  UNL1        0.2099
    108 H           5.1350    3.0708    0.0000 H       1  UNL1        0.0910
    109 H           4.6675    3.4258    0.0000 H       1  UNL1        0.0340
    110 H           3.8705    3.4258    0.0000 H       1  UNL1        0.0340
    111 H           3.4030    3.0708    0.0000 H       1  UNL1        0.0621
    112 H           4.8059    0.6408    0.0000 H       1  UNL1        0.0621
    113 H           3.4030    0.8308    0.0000 H       1  UNL1        0.0645
    114 H           3.6490   -0.0492    0.0000 H       1  UNL1        0.0255
    115 H           4.2690   -0.6692    0.0000 H       1  UNL1        0.0255
    116 H           4.8890   -0.0492    0.0000 H       1  UNL1        0.0255
    117 H           2.5369    3.5708    0.0000 H       1  UNL1        0.2099
    118 H           2.0000    1.2608    0.0000 H       1  UNL1        0.2100
@<TRIPOS>BOND
     1    14     1    1
     2     1    84    1
     3    32     2    1
     4    36     2    1
     5     3    34    1
     6     3    37    1
     7     4    36    1
     8     4    40    1
     9     5    37    2
    10    39     6    1
    11     6    97    1
    12    41     7    1
    13    43     7    1
    14     8    43    1
    15     8    46    1
    16    47     9    1
    17    49     9    1
    18    45    10    1
    19    10   107    1
    20    11    49    1
    21    11    52    1
    22    51    12    1
    23    12   117    1
    24    53    13    1
    25    13   118    1
    26    14    15    1
    27    14    17    1
    28    14    24    1
    29    15    16    1
    30    15    23    1
    31    15    55    1
    32    16    18    1
    33    16    20    1
    34    16    56    1
    35    17    21    1
    36    17    22    1
    37    17    29    1
    38    18    19    1
    39    18    27    1
    40    18    30    1
    41    19    25    1
    42    19    28    1
    43    19    57    1
    44    20    21    1
    45    20    58    1
    46    20    59    1
    47    21    60    1
    48    21    61    1
    49    22    26    1
    50    22    33    1
    51    22    62    1
    52    23    25    1
    53    23    63    1
    54    23    64    1
    55    24    26    1
    56    24    65    1
    57    24    66    1
    58    25    67    1
    59    25    68    1
    60    26    69    1
    61    26    70    1
    62    27    31    1
    63    27    71    1
    64    27    72    1
    65    28    32    1
    66    28    73    1
    67    28    74    1
    68    29    75    1
    69    29    76    1
    70    29    77    1
    71    30    78    1
    72    30    79    1
    73    30    80    1
    74    31    32    1
    75    31    81    1
    76    31    82    1
    77    32    83    1
    78    33    34    1
    79    33    35    2
    80    34    85    1
    81    34    86    1
    82    35    37    1
    83    35    87    1
    84    36    38    1
    85    36    88    1
    86    38    39    1
    87    38    89    1
    88    38    90    1
    89    39    41    1
    90    39    91    1
    91    40    41    1
    92    40    42    1
    93    40    92    1
    94    41    93    1
    95    42    94    1
    96    42    95    1
    97    42    96    1
    98    43    44    1
    99    43    98    1
   100    44    45    1
   101    44    99    1
   102    44   100    1
   103    45    47    1
   104    45   101    1
   105    46    47    1
   106    46    48    1
   107    46   102    1
   108    47   103    1
   109    48   104    1
   110    48   105    1
   111    48   106    1
   112    49    50    1
   113    49   108    1
   114    50    51    1
   115    50   109    1
   116    50   110    1
   117    51    53    1
   118    51   111    1
   119    52    53    1
   120    52    54    1
   121    52   112    1
   122    53   113    1
   123    54   114    1
   124    54   115    1
   125    54   116    1
