@<TRIPOS>MOLECULE
IMPHY001271
 148 154 0 0 0
SMALL
GASTEIGER

@<TRIPOS>ATOM
      1 O          12.4251   -1.7358    0.0000 O.3     1  UNL1       -0.3915
      2 O          15.3139    3.9976    0.0000 O.3     1  UNL1       -0.3449
      3 O          10.3312   -3.1627    0.0000 O.3     1  UNL1       -0.3422
      4 O          16.9623    4.5294    0.0000 O.3     1  UNL1       -0.3405
      5 O           8.5991   -3.1627    0.0000 O.3     1  UNL1       -0.3405
      6 O          15.9279    2.0942    0.0000 O.3     1  UNL1       -0.3841
      7 O          10.3312   -5.1627    0.0000 O.3     1  UNL1       -0.3841
      8 O          17.8833    1.6742    0.0000 O.3     1  UNL1       -0.3864
      9 O           8.5991   -6.1627    0.0000 O.3     1  UNL1       -0.3864
     10 O          19.2247    3.1577    0.0000 O.3     1  UNL1       -0.3865
     11 O           6.8671   -5.1627    0.0000 O.3     1  UNL1       -0.3865
     12 O           6.8671   -2.1627    0.0000 O.3     1  UNL1       -0.3460
     13 O          18.3037    6.0128    0.0000 O.3     1  UNL1       -0.3924
     14 O           5.1350   -2.1627    0.0000 O.3     1  UNL1       -0.3405
     15 O           6.8671   -0.1627    0.0000 O.3     1  UNL1       -0.3841
     16 O           5.1350    0.8373    0.0000 O.3     1  UNL1       -0.3864
     17 O           3.4030   -0.1627    0.0000 O.3     1  UNL1       -0.3865
     18 O           2.5369   -1.6627    0.0000 O.3     1  UNL1       -0.3924
     19 C          11.4931    1.1157    0.0000 C.3     1  UNL1       -0.0229
     20 C          10.8252    0.3714    0.0000 C.3     1  UNL1       -0.0209
     21 C          12.4716    0.9095    0.0000 C.3     1  UNL1       -0.0271
     22 C          13.1791    1.6740    0.0000 C.3     1  UNL1       -0.0252
     23 C          11.1359   -0.5791    0.0000 C.3     1  UNL1       -0.0036
     24 C          12.8631    2.6666    0.0000 C.3     1  UNL1       -0.0278
     25 C          11.1543    2.1007    0.0000 C.3     1  UNL1       -0.0466
     26 C          10.3312   -1.1627    0.0000 C.3     1  UNL1       -0.0063
     27 C          12.7822   -0.0410    0.0000 C.3     1  UNL1       -0.0227
     28 C          12.1144   -0.7853    0.0000 C.3     1  UNL1        0.0592
     29 C           9.8312    0.3671    0.0000 C.3     1  UNL1       -0.0464
     30 C          11.8439    2.8814    0.0000 C.3     1  UNL1       -0.0486
     31 C          13.5815    3.4797    0.0000 C.3     1  UNL1       -0.0052
     32 C           9.5264   -0.5791    0.0000 C.3     1  UNL1       -0.0467
     33 C          14.2353    1.4258    0.0000 C.3     1  UNL1       -0.0447
     34 C          10.6441    1.6442    0.0000 C.3     1  UNL1       -0.0588
     35 C          10.2082    1.1584    0.0000 C.3     1  UNL1       -0.0587
     36 C          13.4824    0.7211    0.0000 C.3     1  UNL1       -0.0590
     37 C          14.6432    3.2559    0.0000 C.3     1  UNL1        0.0672
     38 C          10.3312   -2.1627    0.0000 C.3     1  UNL1        0.0733
     39 C          14.9723    2.2220    0.0000 C.3     1  UNL1       -0.0255
     40 C          13.7840    4.4590    0.0000 C.3     1  UNL1       -0.0572
     41 C          12.8346    4.1446    0.0000 C.3     1  UNL1       -0.0572
     42 C          11.3312   -2.1627    0.0000 C.3     1  UNL1       -0.0202
     43 C           9.3312   -2.1627    0.0000 C.3     1  UNL1       -0.0354
     44 C          11.8312   -3.0287    0.0000 C.3     1  UNL1       -0.0319
     45 C          16.2916    3.7877    0.0000 C.3     1  UNL1        0.1882
     46 C           9.4651   -3.6627    0.0000 C.3     1  UNL1        0.1885
     47 C          16.5986    2.8360    0.0000 C.3     1  UNL1        0.1341
     48 C           9.4651   -4.6627    0.0000 C.3     1  UNL1        0.1341
     49 C          12.8312   -3.0287    0.0000 C.2     1  UNL1       -0.0852
     50 C          17.5763    2.6260    0.0000 C.3     1  UNL1        0.1141
     51 C           8.5991   -5.1627    0.0000 C.3     1  UNL1        0.1141
     52 C          17.9400    4.3194    0.0000 C.3     1  UNL1        0.1130
     53 C           7.7331   -3.6627    0.0000 C.3     1  UNL1        0.1134
     54 C          18.2470    3.3677    0.0000 C.3     1  UNL1        0.1119
     55 C           7.7331   -4.6627    0.0000 C.3     1  UNL1        0.1119
     56 C          13.3312   -3.8947    0.0000 C.2     1  UNL1       -0.0796
     57 C           6.8671   -3.1627    0.0000 C.3     1  UNL1        0.0796
     58 C          18.6107    5.0611    0.0000 C.3     1  UNL1        0.0730
     59 C          14.3312   -3.8947    0.0000 C.3     1  UNL1       -0.0440
     60 C          12.8312   -4.7608    0.0000 C.3     1  UNL1       -0.0440
     61 C           6.0010   -1.6627    0.0000 C.3     1  UNL1        0.1880
     62 C           6.0010   -0.6627    0.0000 C.3     1  UNL1        0.1341
     63 C           5.1350   -0.1627    0.0000 C.3     1  UNL1        0.1141
     64 C           4.2690   -1.6627    0.0000 C.3     1  UNL1        0.1130
     65 C           4.2690   -0.6627    0.0000 C.3     1  UNL1        0.1119
     66 C           3.4030   -2.1627    0.0000 C.3     1  UNL1        0.0730
     67 H          13.3019    0.7278    0.0000 H       1  UNL1        0.0312
     68 H          11.3130   -1.4104    0.0000 H       1  UNL1        0.0335
     69 H          12.5960    3.4735    0.0000 H       1  UNL1        0.0312
     70 H          10.7667    2.5847    0.0000 H       1  UNL1        0.0271
     71 H          10.6111    1.8017    0.0000 H       1  UNL1        0.0271
     72 H           9.5740   -1.5489    0.0000 H       1  UNL1        0.0332
     73 H          13.1648   -0.5289    0.0000 H       1  UNL1        0.0293
     74 H          13.3292    0.2510    0.0000 H       1  UNL1        0.0293
     75 H          11.7003   -1.2468    0.0000 H       1  UNL1        0.0596
     76 H           9.8937    0.9840    0.0000 H       1  UNL1        0.0271
     77 H           9.2243    0.4941    0.0000 H       1  UNL1        0.0271
     78 H          12.0737    3.4572    0.0000 H       1  UNL1        0.0268
     79 H          11.3159    3.2063    0.0000 H       1  UNL1        0.0268
     80 H           8.9595   -0.3280    0.0000 H       1  UNL1        0.0269
     81 H           9.2172   -1.1165    0.0000 H       1  UNL1        0.0269
     82 H          13.9923    0.8554    0.0000 H       1  UNL1        0.0271
     83 H          14.7557    1.0887    0.0000 H       1  UNL1        0.0271
     84 H          10.9718    2.1706    0.0000 H       1  UNL1        0.0235
     85 H          10.1178    1.9718    0.0000 H       1  UNL1        0.0235
     86 H          10.3165    1.1178    0.0000 H       1  UNL1        0.0235
     87 H          10.6961    1.5409    0.0000 H       1  UNL1        0.0235
     88 H           9.8256    1.6463    0.0000 H       1  UNL1        0.0235
     89 H           9.7203    0.7758    0.0000 H       1  UNL1        0.0235
     90 H          12.8916    0.5330    0.0000 H       1  UNL1        0.0235
     91 H          13.6705    0.1303    0.0000 H       1  UNL1        0.0235
     92 H          14.0732    0.9092    0.0000 H       1  UNL1        0.0235
     93 H          14.4517    3.8456    0.0000 H       1  UNL1        0.0602
     94 H          15.3485    1.7293    0.0000 H       1  UNL1        0.0290
     95 H          15.5222    2.5084    0.0000 H       1  UNL1        0.0290
     96 H          14.3911    4.3334    0.0000 H       1  UNL1        0.0236
     97 H          13.9095    5.0661    0.0000 H       1  UNL1        0.0236
     98 H          13.1768    4.5845    0.0000 H       1  UNL1        0.0236
     99 H          13.2469    4.6077    0.0000 H       1  UNL1        0.0236
    100 H          12.3716    4.5569    0.0000 H       1  UNL1        0.0236
    101 H          12.4224    3.6816    0.0000 H       1  UNL1        0.0236
    102 H          13.0317   -1.8637    0.0000 H       1  UNL1        0.2098
    103 H          11.9138   -1.9506    0.0000 H       1  UNL1        0.0296
    104 H          11.2235   -1.5521    0.0000 H       1  UNL1        0.0296
    105 H           9.3312   -1.5427    0.0000 H       1  UNL1        0.0257
    106 H           8.7112   -2.1627    0.0000 H       1  UNL1        0.0257
    107 H           9.3312   -2.7827    0.0000 H       1  UNL1        0.0257
    108 H          11.2486   -3.2408    0.0000 H       1  UNL1        0.0308
    109 H          11.9388   -3.6393    0.0000 H       1  UNL1        0.0308
    110 H          15.8758    3.3278    0.0000 H       1  UNL1        0.0937
    111 H          10.0021   -3.9727    0.0000 H       1  UNL1        0.0938
    112 H          16.7889    2.2459    0.0000 H       1  UNL1        0.0671
    113 H           9.4651   -5.2827    0.0000 H       1  UNL1        0.0671
    114 H          13.1412   -2.4918    0.0000 H       1  UNL1        0.0571
    115 H          18.1825    2.4958    0.0000 H       1  UNL1        0.0648
    116 H           9.1360   -5.4727    0.0000 H       1  UNL1        0.0648
    117 H          17.7497    4.9094    0.0000 H       1  UNL1        0.0647
    118 H           7.7331   -3.0427    0.0000 H       1  UNL1        0.0647
    119 H          18.4373    2.7776    0.0000 H       1  UNL1        0.0647
    120 H           7.7331   -5.2827    0.0000 H       1  UNL1        0.0647
    121 H          16.1182    1.5042    0.0000 H       1  UNL1        0.2101
    122 H          10.3312   -5.7827    0.0000 H       1  UNL1        0.2101
    123 H           6.2565   -3.0550    0.0000 H       1  UNL1        0.0587
    124 H           6.6550   -3.7453    0.0000 H       1  UNL1        0.0587
    125 H          18.9914    4.5717    0.0000 H       1  UNL1        0.0584
    126 H          19.1588    5.3510    0.0000 H       1  UNL1        0.0584
    127 H          18.4895    1.5441    0.0000 H       1  UNL1        0.2100
    128 H           8.0622   -6.4727    0.0000 H       1  UNL1        0.2100
    129 H          14.3312   -4.5147    0.0000 H       1  UNL1        0.0274
    130 H          14.9512   -3.8947    0.0000 H       1  UNL1        0.0274
    131 H          14.3312   -3.2747    0.0000 H       1  UNL1        0.0274
    132 H          12.2942   -4.4508    0.0000 H       1  UNL1        0.0274
    133 H          12.5212   -5.2977    0.0000 H       1  UNL1        0.0274
    134 H          13.3681   -5.0708    0.0000 H       1  UNL1        0.0274
    135 H          19.6405    3.6176    0.0000 H       1  UNL1        0.2100
    136 H           6.3301   -4.8527    0.0000 H       1  UNL1        0.2100
    137 H          18.7196    6.4727    0.0000 H       1  UNL1        0.2095
    138 H           6.5380   -1.3527    0.0000 H       1  UNL1        0.0937
    139 H           6.0010   -0.0427    0.0000 H       1  UNL1        0.0671
    140 H           4.5981    0.1473    0.0000 H       1  UNL1        0.0648
    141 H           4.2690   -2.2827    0.0000 H       1  UNL1        0.0647
    142 H           4.2690   -0.0427    0.0000 H       1  UNL1        0.0647
    143 H           6.8671    0.4573    0.0000 H       1  UNL1        0.2101
    144 H           3.0044   -2.6376    0.0000 H       1  UNL1        0.0584
    145 H           3.8015   -2.6376    0.0000 H       1  UNL1        0.0584
    146 H           4.5981    1.1473    0.0000 H       1  UNL1        0.2100
    147 H           3.4030    0.4573    0.0000 H       1  UNL1        0.2100
    148 H           2.0000   -1.9727    0.0000 H       1  UNL1        0.2095
@<TRIPOS>BOND
     1    28     1    1
     2     1   102    1
     3    37     2    1
     4    45     2    1
     5    38     3    1
     6    46     3    1
     7     4    45    1
     8     4    52    1
     9     5    46    1
    10     5    53    1
    11    47     6    1
    12     6   121    1
    13    48     7    1
    14     7   122    1
    15    50     8    1
    16     8   127    1
    17    51     9    1
    18     9   128    1
    19    54    10    1
    20    10   135    1
    21    55    11    1
    22    11   136    1
    23    12    57    1
    24    61    12    1
    25    13    58    1
    26    13   137    1
    27    14    61    1
    28    14    64    1
    29    62    15    1
    30    15   143    1
    31    63    16    1
    32    16   146    1
    33    65    17    1
    34    17   147    1
    35    18    66    1
    36    18   148    1
    37    19    20    1
    38    19    21    1
    39    19    25    1
    40    19    34    1
    41    20    23    1
    42    20    29    1
    43    20    35    1
    44    21    22    1
    45    21    27    1
    46    21    67    1
    47    22    24    1
    48    22    33    1
    49    22    36    1
    50    23    26    1
    51    23    28    1
    52    23    68    1
    53    24    30    1
    54    24    31    1
    55    24    69    1
    56    25    30    1
    57    25    70    1
    58    25    71    1
    59    26    32    1
    60    26    38    1
    61    26    72    1
    62    27    28    1
    63    27    73    1
    64    27    74    1
    65    28    75    1
    66    29    32    1
    67    29    76    1
    68    29    77    1
    69    30    78    1
    70    30    79    1
    71    31    37    1
    72    31    40    1
    73    31    41    1
    74    32    80    1
    75    32    81    1
    76    33    39    1
    77    33    82    1
    78    33    83    1
    79    34    84    1
    80    34    85    1
    81    34    86    1
    82    35    87    1
    83    35    88    1
    84    35    89    1
    85    36    90    1
    86    36    91    1
    87    36    92    1
    88    37    39    1
    89    37    93    1
    90    38    42    1
    91    38    43    1
    92    39    94    1
    93    39    95    1
    94    40    96    1
    95    40    97    1
    96    40    98    1
    97    41    99    1
    98    41   100    1
    99    41   101    1
   100    42    44    1
   101    42   103    1
   102    42   104    1
   103    43   105    1
   104    43   106    1
   105    43   107    1
   106    44    49    1
   107    44   108    1
   108    44   109    1
   109    45    47    1
   110    45   110    1
   111    46    48    1
   112    46   111    1
   113    47    50    1
   114    47   112    1
   115    48    51    1
   116    48   113    1
   117    49    56    2
   118    49   114    1
   119    50    54    1
   120    50   115    1
   121    51    55    1
   122    51   116    1
   123    52    54    1
   124    52    58    1
   125    52   117    1
   126    53    55    1
   127    53    57    1
   128    53   118    1
   129    54   119    1
   130    55   120    1
   131    56    59    1
   132    56    60    1
   133    57   123    1
   134    57   124    1
   135    58   125    1
   136    58   126    1
   137    59   129    1
   138    59   130    1
   139    59   131    1
   140    60   132    1
   141    60   133    1
   142    60   134    1
   143    61    62    1
   144    61   138    1
   145    62    63    1
   146    62   139    1
   147    63    65    1
   148    63   140    1
   149    64    65    1
   150    64    66    1
   151    64   141    1
   152    65   142    1
   153    66   144    1
   154    66   145    1
