@<TRIPOS>MOLECULE
IMPHY013541
 46 50 0 0 0
SMALL
GASTEIGER

@<TRIPOS>ATOM
      1 O           4.3989    1.5699    0.0000 O.3     1  UNL1       -0.4544
      2 O           5.3228    2.9526    0.0000 O.3     1  UNL1       -0.3406
      3 O           6.9537    2.2770    0.0000 O.3     1  UNL1       -0.3853
      4 O           2.6137    1.7261    0.0000 O.3     1  UNL1       -0.5033
      5 N           3.3854   -2.8743    0.0000 N.3     1  UNL1       -0.3090
      6 C           5.3228   -0.6605    0.0000 C.3     1  UNL1        0.0058
      7 C           4.9567    0.6460    0.0000 C.3     1  UNL1        0.0253
      8 C           5.3228    1.9526    0.0000 C.3     1  UNL1        0.2393
      9 C           4.3989   -0.2779    0.0000 C.ar    1  UNL1        0.0093
     10 C           6.2466   -0.2779    0.0000 C.3     1  UNL1       -0.0405
     11 C           5.6391   -1.5933    0.0000 C.3     1  UNL1       -0.0413
     12 C           6.2466    1.5699    0.0000 C.3     1  UNL1        0.1203
     13 C           4.0154   -2.0697    0.0000 C.3     1  UNL1        0.0335
     14 C           3.7776   -1.1139    0.0000 C.ar    1  UNL1       -0.0199
     15 C           6.6293    0.6460    0.0000 C.3     1  UNL1       -0.0199
     16 C           4.9692   -2.3154    0.0000 C.3     1  UNL1       -0.0326
     17 C           4.0162    0.6460    0.0000 C.ar    1  UNL1        0.1695
     18 C           2.7438   -0.9859    0.0000 C.ar    1  UNL1       -0.0375
     19 C           2.0492   -1.7354    0.0000 C.3     1  UNL1       -0.0146
     20 C           2.9857    0.7979    0.0000 C.ar    1  UNL1        0.1592
     21 C           2.3779   -2.7030    0.0000 C.3     1  UNL1        0.0004
     22 C           2.3452   -0.0236    0.0000 C.ar    1  UNL1       -0.0130
     23 C           4.4567    3.4526    0.0000 C.3     1  UNL1        0.0408
     24 H           4.4502    1.0036    0.0000 H       1  UNL1        0.0338
     25 H           5.5767    0.6460    0.0000 H       1  UNL1        0.0338
     26 H           6.3276   -0.8926    0.0000 H       1  UNL1        0.0275
     27 H           6.8613   -0.3588    0.0000 H       1  UNL1        0.0275
     28 H           6.0180   -2.0840    0.0000 H       1  UNL1        0.0274
     29 H           6.1855   -1.3003    0.0000 H       1  UNL1        0.0274
     30 H           6.8547    1.4489    0.0000 H       1  UNL1        0.0659
     31 H           4.2886   -2.8746    0.0000 H       1  UNL1        0.0510
     32 H           7.1212    0.2686    0.0000 H       1  UNL1        0.0292
     33 H           7.1212    1.0234    0.0000 H       1  UNL1        0.0292
     34 H           4.7179   -2.8821    0.0000 H       1  UNL1        0.0284
     35 H           5.4869   -2.6565    0.0000 H       1  UNL1        0.0284
     36 H           3.6090   -3.4526    0.0000 H       1  UNL1        0.1225
     37 H           1.6700   -1.2449    0.0000 H       1  UNL1        0.0326
     38 H           1.5030   -2.0287    0.0000 H       1  UNL1        0.0326
     39 H           1.7660   -2.8032    0.0000 H       1  UNL1        0.0427
     40 H           2.3760   -3.3230    0.0000 H       1  UNL1        0.0427
     41 H           1.7309    0.0597    0.0000 H       1  UNL1        0.0658
     42 H           7.5526    2.1165    0.0000 H       1  UNL1        0.2101
     43 H           4.7667    3.9895    0.0000 H       1  UNL1        0.0525
     44 H           3.9198    3.7626    0.0000 H       1  UNL1        0.0525
     45 H           4.1467    2.9156    0.0000 H       1  UNL1        0.0525
     46 H           2.0000    1.8142    0.0000 H       1  UNL1        0.2923
@<TRIPOS>BOND
     1     1     8    1
     2     1    17    1
     3     8     2    1
     4     2    23    1
     5    12     3    1
     6     3    42    1
     7     4    20    1
     8     4    46    1
     9     5    13    1
    10     5    21    1
    11     5    36    1
    12     6     7    1
    13     6     9    1
    14     6    10    1
    15     6    11    1
    16     7     8    1
    17     7    24    1
    18     7    25    1
    19     8    12    1
    20     9    14   ar
    21     9    17   ar
    22    10    15    1
    23    10    26    1
    24    10    27    1
    25    11    16    1
    26    11    28    1
    27    11    29    1
    28    12    15    1
    29    12    30    1
    30    13    14    1
    31    13    16    1
    32    13    31    1
    33    14    18   ar
    34    15    32    1
    35    15    33    1
    36    16    34    1
    37    16    35    1
    38    17    20   ar
    39    18    19    1
    40    18    22   ar
    41    19    21    1
    42    19    37    1
    43    19    38    1
    44    20    22   ar
    45    21    39    1
    46    21    40    1
    47    22    41    1
    48    23    43    1
    49    23    44    1
    50    23    45    1
