@<TRIPOS>MOLECULE
IMPHY004275
 128 133 0 0 0
SMALL
GASTEIGER

@<TRIPOS>ATOM
      1 O          10.0160   -2.7197    0.0000 O.3     1  UNL1       -0.3451
      2 O           9.1164    2.8461    0.0000 O.3     1  UNL1       -0.3915
      3 O           6.6801    3.5425    0.0000 O.3     1  UNL1       -0.3422
      4 O          13.6609   -1.6887    0.0000 O.3     1  UNL1       -0.3912
      5 O           8.2839   -2.7197    0.0000 O.3     1  UNL1       -0.3405
      6 O           5.0358    2.9981    0.0000 O.3     1  UNL1       -0.3405
      7 O          10.0160   -4.7197    0.0000 O.3     1  UNL1       -0.3841
      8 O           8.2839   -5.7197    0.0000 O.3     1  UNL1       -0.3864
      9 O           6.0514    5.4411    0.0000 O.3     1  UNL1       -0.3841
     10 O           6.5519   -4.7197    0.0000 O.3     1  UNL1       -0.3865
     11 O           4.0929    5.8460    0.0000 O.3     1  UNL1       -0.3864
     12 O           2.7629    4.3523    0.0000 O.3     1  UNL1       -0.3865
     13 O           5.6858   -3.2197    0.0000 O.3     1  UNL1       -0.3924
     14 O           2.4123    2.6561    0.0000 O.3     1  UNL1       -0.3924
     15 C           9.1279   -0.1539    0.0000 C.3     1  UNL1       -0.0206
     16 C           8.2600    0.3428    0.0000 C.3     1  UNL1       -0.0208
     17 C           9.9920    0.3495    0.0000 C.3     1  UNL1       -0.0269
     18 C          10.9040   -0.1539    0.0000 C.3     1  UNL1       -0.0228
     19 C           8.2561    1.3428    0.0000 C.3     1  UNL1       -0.0036
     20 C          10.9160   -1.1954    0.0000 C.3     1  UNL1       -0.0014
     21 C           9.1159   -1.1954    0.0000 C.3     1  UNL1       -0.0200
     22 C           9.9882    1.3495    0.0000 C.3     1  UNL1       -0.0227
     23 C           7.3088    1.6439    0.0000 C.3     1  UNL1       -0.0063
     24 C           9.1202    1.8461    0.0000 C.3     1  UNL1        0.0592
     25 C           7.3150    0.0344    0.0000 C.3     1  UNL1       -0.0464
     26 C          10.0160   -1.7197    0.0000 C.3     1  UNL1        0.0662
     27 C          11.8536   -1.7415    0.0000 C.3     1  UNL1       -0.0032
     28 C           6.7282    0.8369    0.0000 C.3     1  UNL1       -0.0467
     29 C          11.8286    0.4138    0.0000 C.3     1  UNL1       -0.0446
     30 C           8.4881   -0.9224    0.0000 C.3     1  UNL1       -0.0587
     31 C           7.9216   -0.5982    0.0000 C.3     1  UNL1       -0.0587
     32 C          10.8924    0.8461    0.0000 C.3     1  UNL1       -0.0589
     33 C          12.7911   -1.1954    0.0000 C.3     1  UNL1        0.0607
     34 C           6.9944    2.5932    0.0000 C.3     1  UNL1        0.0733
     35 C          12.7785   -0.1105    0.0000 C.3     1  UNL1       -0.0258
     36 C          12.3536   -2.6076    0.0000 C.3     1  UNL1       -0.0571
     37 C          11.3536   -2.6076    0.0000 C.3     1  UNL1       -0.0571
     38 C           6.0451    2.2789    0.0000 C.3     1  UNL1       -0.0202
     39 C           7.9437    2.9075    0.0000 C.3     1  UNL1       -0.0354
     40 C           9.1499   -3.2197    0.0000 C.3     1  UNL1        0.1882
     41 C           5.8427    1.2996    0.0000 C.3     1  UNL1       -0.0319
     42 C           5.7008    3.7450    0.0000 C.3     1  UNL1        0.1885
     43 C           9.1499   -4.2197    0.0000 C.3     1  UNL1        0.1341
     44 C           8.2839   -4.7197    0.0000 C.3     1  UNL1        0.1141
     45 C           5.3865    4.6943    0.0000 C.3     1  UNL1        0.1341
     46 C           7.4179   -3.2197    0.0000 C.3     1  UNL1        0.1130
     47 C           4.8934    0.9852    0.0000 C.2     1  UNL1       -0.0852
     48 C           7.4179   -4.2197    0.0000 C.3     1  UNL1        0.1119
     49 C           4.4072    4.8967    0.0000 C.3     1  UNL1        0.1141
     50 C           4.0565    3.2005    0.0000 C.3     1  UNL1        0.1130
     51 C           3.7422    4.1498    0.0000 C.3     1  UNL1        0.1119
     52 C           6.5519   -2.7197    0.0000 C.3     1  UNL1        0.0730
     53 C           4.6909    0.0060    0.0000 C.2     1  UNL1       -0.0796
     54 C           3.3916    2.4536    0.0000 C.3     1  UNL1        0.0730
     55 C           3.7416   -0.3084    0.0000 C.3     1  UNL1       -0.0440
     56 C           5.4378   -0.6590    0.0000 C.3     1  UNL1       -0.0440
     57 H          10.7232    0.7830    0.0000 H       1  UNL1        0.0312
     58 H           8.1629    2.1877    0.0000 H       1  UNL1        0.0335
     59 H          10.9160   -2.0454    0.0000 H       1  UNL1        0.0337
     60 H           8.5063   -1.0823    0.0000 H       1  UNL1        0.0296
     61 H           8.9001   -1.7767    0.0000 H       1  UNL1        0.0296
     62 H          10.5992    1.2442    0.0000 H       1  UNL1        0.0293
     63 H          10.1980    1.9329    0.0000 H       1  UNL1        0.0293
     64 H           6.6959    1.7377    0.0000 H       1  UNL1        0.0332
     65 H           9.6560    2.1582    0.0000 H       1  UNL1        0.0596
     66 H           6.7788   -0.2769    0.0000 H       1  UNL1        0.0271
     67 H           7.5682   -0.5315    0.0000 H       1  UNL1        0.0271
     68 H          10.5535   -2.0287    0.0000 H       1  UNL1        0.0600
     69 H           6.2658    1.2498    0.0000 H       1  UNL1        0.0269
     70 H           6.2690    0.4204    0.0000 H       1  UNL1        0.0269
     71 H          12.2167    0.8973    0.0000 H       1  UNL1        0.0271
     72 H          11.4186    0.8789    0.0000 H       1  UNL1        0.0271
     73 H           8.0116   -0.5256    0.0000 H       1  UNL1        0.0235
     74 H           8.0914   -1.3988    0.0000 H       1  UNL1        0.0235
     75 H           8.9645   -1.3191    0.0000 H       1  UNL1        0.0235
     76 H           7.3382   -0.3884    0.0000 H       1  UNL1        0.0235
     77 H           7.7118   -1.1816    0.0000 H       1  UNL1        0.0235
     78 H           8.5050   -0.8080    0.0000 H       1  UNL1        0.0235
     79 H          11.5124    0.8532    0.0000 H       1  UNL1        0.0235
     80 H          10.8852    1.4660    0.0000 H       1  UNL1        0.0235
     81 H          10.2725    0.8389    0.0000 H       1  UNL1        0.0235
     82 H          13.3250   -0.8803    0.0000 H       1  UNL1        0.0599
     83 H          13.3906   -0.2095    0.0000 H       1  UNL1        0.0290
     84 H          12.9808    0.4756    0.0000 H       1  UNL1        0.0290
     85 H          11.8166   -2.9176    0.0000 H       1  UNL1        0.0236
     86 H          12.6636   -3.1445    0.0000 H       1  UNL1        0.0236
     87 H          12.8905   -2.2976    0.0000 H       1  UNL1        0.0236
     88 H          10.8166   -2.2976    0.0000 H       1  UNL1        0.0236
     89 H          11.0436   -3.1445    0.0000 H       1  UNL1        0.0236
     90 H          11.8905   -2.9176    0.0000 H       1  UNL1        0.0236
     91 H           9.6521    3.1582    0.0000 H       1  UNL1        0.2098
     92 H           5.9554    2.8923    0.0000 H       1  UNL1        0.0296
     93 H           5.4254    2.2970    0.0000 H       1  UNL1        0.0296
     94 H           8.1386    2.3189    0.0000 H       1  UNL1        0.0257
     95 H           8.5323    3.1024    0.0000 H       1  UNL1        0.0257
     96 H           7.7489    3.4961    0.0000 H       1  UNL1        0.0257
     97 H           9.6869   -3.5297    0.0000 H       1  UNL1        0.0937
     98 H          14.1955   -1.3746    0.0000 H       1  UNL1        0.2098
     99 H           5.9324    0.6861    0.0000 H       1  UNL1        0.0308
    100 H           6.4624    1.2814    0.0000 H       1  UNL1        0.0308
    101 H           5.8957    3.1564    0.0000 H       1  UNL1        0.0938
    102 H           9.1499   -4.8397    0.0000 H       1  UNL1        0.0671
    103 H           7.7470   -5.0297    0.0000 H       1  UNL1        0.0648
    104 H           5.9936    4.5688    0.0000 H       1  UNL1        0.0671
    105 H           7.4179   -2.5997    0.0000 H       1  UNL1        0.0647
    106 H           4.4303    1.3975    0.0000 H       1  UNL1        0.0571
    107 H           6.8809   -3.9097    0.0000 H       1  UNL1        0.0647
    108 H           4.8195    5.3598    0.0000 H       1  UNL1        0.0648
    109 H           4.2514    2.6120    0.0000 H       1  UNL1        0.0647
    110 H          10.0160   -5.3397    0.0000 H       1  UNL1        0.2101
    111 H           3.3299    3.6868    0.0000 H       1  UNL1        0.0647
    112 H           6.9504   -2.2448    0.0000 H       1  UNL1        0.0584
    113 H           6.1533   -2.2448    0.0000 H       1  UNL1        0.0584
    114 H           7.7470   -6.0297    0.0000 H       1  UNL1        0.2100
    115 H           5.8566    6.0297    0.0000 H       1  UNL1        0.2101
    116 H           6.5519   -5.3397    0.0000 H       1  UNL1        0.2100
    117 H           3.1625    1.8775    0.0000 H       1  UNL1        0.0584
    118 H           3.9192    2.1280    0.0000 H       1  UNL1        0.0584
    119 H           3.4857    5.9715    0.0000 H       1  UNL1        0.2100
    120 H           3.5467    0.2802    0.0000 H       1  UNL1        0.0274
    121 H           3.1530   -0.5033    0.0000 H       1  UNL1        0.0274
    122 H           3.9365   -0.8969    0.0000 H       1  UNL1        0.0274
    123 H           5.0255   -1.1221    0.0000 H       1  UNL1        0.0274
    124 H           5.9008   -1.0713    0.0000 H       1  UNL1        0.0274
    125 H           5.8501   -0.1960    0.0000 H       1  UNL1        0.0274
    126 H           2.5680    4.9409    0.0000 H       1  UNL1        0.2100
    127 H           5.1489   -2.9097    0.0000 H       1  UNL1        0.2095
    128 H           2.0000    2.1930    0.0000 H       1  UNL1        0.2095
@<TRIPOS>BOND
     1    26     1    1
     2     1    40    1
     3    24     2    1
     4     2    91    1
     5    34     3    1
     6     3    42    1
     7    33     4    1
     8     4    98    1
     9     5    40    1
    10     5    46    1
    11     6    42    1
    12     6    50    1
    13     7    43    1
    14     7   110    1
    15     8    44    1
    16     8   114    1
    17     9    45    1
    18     9   115    1
    19    10    48    1
    20    10   116    1
    21    11    49    1
    22    11   119    1
    23    12    51    1
    24    12   126    1
    25    13    52    1
    26    13   127    1
    27    14    54    1
    28    14   128    1
    29    15    16    1
    30    15    17    1
    31    15    21    1
    32    15    30    1
    33    16    19    1
    34    16    25    1
    35    16    31    1
    36    17    18    1
    37    17    22    1
    38    17    57    1
    39    18    20    1
    40    18    29    1
    41    18    32    1
    42    19    23    1
    43    19    24    1
    44    19    58    1
    45    20    26    1
    46    20    27    1
    47    20    59    1
    48    21    26    1
    49    21    60    1
    50    21    61    1
    51    22    24    1
    52    22    62    1
    53    22    63    1
    54    23    28    1
    55    23    34    1
    56    23    64    1
    57    24    65    1
    58    25    28    1
    59    25    66    1
    60    25    67    1
    61    26    68    1
    62    27    33    1
    63    27    36    1
    64    27    37    1
    65    28    69    1
    66    28    70    1
    67    29    35    1
    68    29    71    1
    69    29    72    1
    70    30    73    1
    71    30    74    1
    72    30    75    1
    73    31    76    1
    74    31    77    1
    75    31    78    1
    76    32    79    1
    77    32    80    1
    78    32    81    1
    79    33    35    1
    80    33    82    1
    81    34    38    1
    82    34    39    1
    83    35    83    1
    84    35    84    1
    85    36    85    1
    86    36    86    1
    87    36    87    1
    88    37    88    1
    89    37    89    1
    90    37    90    1
    91    38    41    1
    92    38    92    1
    93    38    93    1
    94    39    94    1
    95    39    95    1
    96    39    96    1
    97    40    43    1
    98    40    97    1
    99    41    47    1
   100    41    99    1
   101    41   100    1
   102    42    45    1
   103    42   101    1
   104    43    44    1
   105    43   102    1
   106    44    48    1
   107    44   103    1
   108    45    49    1
   109    45   104    1
   110    46    48    1
   111    46    52    1
   112    46   105    1
   113    47    53    2
   114    47   106    1
   115    48   107    1
   116    49    51    1
   117    49   108    1
   118    50    51    1
   119    50    54    1
   120    50   109    1
   121    51   111    1
   122    52   112    1
   123    52   113    1
   124    53    55    1
   125    53    56    1
   126    54   117    1
   127    54   118    1
   128    55   120    1
   129    55   121    1
   130    55   122    1
   131    56   123    1
   132    56   124    1
   133    56   125    1
