@<TRIPOS>MOLECULE
IMPHY002405
 30 32 0 0 0
SMALL
GASTEIGER

@<TRIPOS>ATOM
      1 C           5.9125   -0.2167    0.0000 C.ar    1  UNL1        0.2356
      2 C           5.9125   -0.8167    0.0000 C.ar    1  UNL1        0.2165
      3 C           6.4333   -1.1167    0.0000 C.ar    1  UNL1        0.2386
      4 C           6.9500   -0.8167    0.0000 C.ar    1  UNL1        0.1187
      5 C           6.9500   -0.2167    0.0000 C.ar    1  UNL1        0.1551
      6 C           6.4333    0.0833    0.0000 C.ar    1  UNL1        0.0830
      7 C           7.4708   -1.1167    0.0000 C.ar    1  UNL1        0.2384
      8 C           7.9917   -0.8167    0.0000 C.ar    1  UNL1        0.2119
      9 C           7.9917   -0.2167    0.0000 C.ar    1  UNL1        0.1821
     10 O           7.4708    0.0833    0.0000 O.2     1  UNL1       -0.4500
     11 C           8.5083    0.0833    0.0000 C.ar    1  UNL1        0.0376
     12 C           9.0292   -0.2167    0.0000 C.ar    1  UNL1        0.0020
     13 C           9.5500    0.0833    0.0000 C.ar    1  UNL1        0.0168
     14 C           9.5500    0.6833    0.0000 C.ar    1  UNL1        0.1917
     15 C           9.0292    0.9833    0.0000 C.ar    1  UNL1        0.0418
     16 C           8.5083    0.6833    0.0000 C.ar    1  UNL1        0.0064
     17 O          10.0708    0.9833    0.0000 O.3     1  UNL1       -0.2869
     18 O           7.4708   -1.7167    0.0000 O.2     1  UNL1       -0.2830
     19 O           6.4333   -1.7167    0.0000 O.3     1  UNL1       -0.2830
     20 O           5.3917    0.0833    0.0000 O.3     1  UNL1       -0.2831
     21 C          10.0708   -0.2167    0.0000 C.3     1  UNL1        0.0297
     22 O           5.3958   -1.1167    0.0000 O.3     1  UNL1       -0.4652
     23 C           4.8792   -0.8167    0.0000 C.3     1  UNL1        0.2528
     24 O           8.5083   -1.1167    0.0000 O.3     1  UNL1       -0.4653
     25 C           9.0292   -0.8167    0.0000 C.3     1  UNL1        0.2528
     26 C          10.5917    0.0833    0.0000 C.3     1  UNL1        0.0074
     27 C          11.1083   -0.2167    0.0000 C.3     1  UNL1        0.0334
     28 C          11.6292    0.0833    0.0000 C.3     1  UNL1        0.0027
     29 C          11.1083   -0.8167    0.0000 C.3     1  UNL1        0.1820
     30 O          11.6292   -1.1167    0.0000 O.3     1  UNL1       -0.2204
@<TRIPOS>BOND
     1     1     2   ar
     2     1    20    1
     3     2     3   ar
     4     2    22    1
     5     3     4   ar
     6     3    19    1
     7     4     5   ar
     8     4     7   ar
     9     5     6   ar
    10     6     1   ar
    11     7     8   ar
    12     7    18    2
    13     8     9   ar
    14     8    24    1
    15     9    10   ar
    16     9    11    1
    17    10     5   ar
    18    11    12   ar
    19    12    13   ar
    20    13    14   ar
    21    13    21    1
    22    14    15   ar
    23    14    17    1
    24    15    16   ar
    25    16    11   ar
    26    21    26    1
    27    22    23    1
    28    24    25    1
    29    26    27    1
    30    27    28    1
    31    27    29    1
    32    29    30    1
