@<TRIPOS>MOLECULE
IMPHY015976
 29 30 0 0 0
SMALL
GASTEIGER

@<TRIPOS>ATOM
      1 C           3.7320   -0.5843    0.0000 C.3     1  UNL1       -0.0033
      2 C           2.8660   -0.0843    0.0000 C.3     1  UNL1       -0.0163
      3 C           4.5981   -0.0843    0.0000 C.ar    1  UNL1       -0.0340
      4 C           3.2320   -1.4503    0.0000 C.3     1  UNL1       -0.0552
      5 C           4.2320   -1.4503    0.0000 C.3     1  UNL1       -0.0552
      6 C           2.8660    0.9157    0.0000 C.2     1  UNL1       -0.0798
      7 C           4.5981    0.9157    0.0000 C.ar    1  UNL1       -0.0216
      8 C           2.0000   -0.5843    0.0000 C.3     1  UNL1       -0.0582
      9 C           3.7320    1.4157    0.0000 C.2     1  UNL1       -0.0580
     10 C           5.4920   -0.6190    0.0000 C.ar    1  UNL1       -0.0575
     11 C           5.4920    1.4503    0.0000 C.ar    1  UNL1       -0.0543
     12 C           6.3981   -0.1051    0.0000 C.ar    1  UNL1       -0.0614
     13 C           6.3981    0.9365    0.0000 C.ar    1  UNL1       -0.0612
     14 H           2.8660   -0.7043    0.0000 H       1  UNL1        0.0349
     15 H           2.6951   -1.1403    0.0000 H       1  UNL1        0.0238
     16 H           2.9220   -1.9873    0.0000 H       1  UNL1        0.0238
     17 H           3.7690   -1.7603    0.0000 H       1  UNL1        0.0238
     18 H           3.6951   -1.7603    0.0000 H       1  UNL1        0.0238
     19 H           4.5420   -1.9873    0.0000 H       1  UNL1        0.0238
     20 H           4.7690   -1.1403    0.0000 H       1  UNL1        0.0238
     21 H           2.3291    1.2257    0.0000 H       1  UNL1        0.0575
     22 H           1.6900   -0.0474    0.0000 H       1  UNL1        0.0236
     23 H           1.4631   -0.8943    0.0000 H       1  UNL1        0.0236
     24 H           2.3100   -1.1212    0.0000 H       1  UNL1        0.0236
     25 H           3.7320    2.0357    0.0000 H       1  UNL1        0.0621
     26 H           5.4848   -1.2389    0.0000 H       1  UNL1        0.0621
     27 H           5.4848    2.0703    0.0000 H       1  UNL1        0.0624
     28 H           6.9338   -0.4172    0.0000 H       1  UNL1        0.0618
     29 H           6.9338    1.2486    0.0000 H       1  UNL1        0.0618
@<TRIPOS>BOND
     1     1     2    1
     2     1     3    1
     3     1     4    1
     4     1     5    1
     5     2     6    1
     6     2     8    1
     7     2    14    1
     8     3     7   ar
     9     3    10   ar
    10     4    15    1
    11     4    16    1
    12     4    17    1
    13     5    18    1
    14     5    19    1
    15     5    20    1
    16     6     9    2
    17     6    21    1
    18     7     9    1
    19     7    11   ar
    20     8    22    1
    21     8    23    1
    22     8    24    1
    23     9    25    1
    24    10    12   ar
    25    10    26    1
    26    11    13   ar
    27    11    27    1
    28    12    13   ar
    29    12    28    1
    30    13    29    1
