@<TRIPOS>MOLECULE
IMPHY001305
 39 44 0 0 0
SMALL
GASTEIGER

@<TRIPOS>ATOM
      1 O           4.5732    3.5673    0.0000 O.3     1  UNL1       -0.4518
      2 O           3.1278    4.4167    0.0000 O.3     1  UNL1       -0.4526
      3 O           5.5740   -3.5278    0.0000 O.3     1  UNL1       -0.4526
      4 O           4.0684   -4.4125    0.0000 O.3     1  UNL1       -0.4526
      5 O           5.5161    1.8368    0.0000 O.2     1  UNL1       -0.2669
      6 N           4.6501    0.3368    0.0000 N.ar    1  UNL1       -0.3100
      7 C           3.7841   -0.1632    0.0000 C.ar    1  UNL1        0.0601
      8 C           2.9180    0.3368    0.0000 C.ar    1  UNL1        0.0072
      9 C           2.9180    1.3368    0.0000 C.ar    1  UNL1        0.0002
     10 C           3.8001   -1.2047    0.0000 C.ar    1  UNL1        0.0100
     11 C           3.7841    1.8368    0.0000 C.ar    1  UNL1        0.0926
     12 C           2.9021   -1.7324    0.0000 C.ar    1  UNL1       -0.0122
     13 C           4.6501    1.3368    0.0000 C.ar    1  UNL1        0.2629
     14 C           3.8001    2.8783    0.0000 C.ar    1  UNL1        0.1791
     15 C           2.0080   -0.1700    0.0000 C.ar    1  UNL1       -0.0514
     16 C           2.0000   -1.2116    0.0000 C.ar    1  UNL1       -0.0532
     17 C           4.7520   -1.7253    0.0000 C.ar    1  UNL1       -0.0064
     18 C           2.0080    1.8437    0.0000 C.ar    1  UNL1       -0.0495
     19 C           2.9021    3.4061    0.0000 C.ar    1  UNL1        0.1670
     20 C           2.8937   -2.8174    0.0000 C.ar    1  UNL1       -0.0084
     21 C           4.7688   -2.8102    0.0000 C.ar    1  UNL1        0.1669
     22 C           3.8334   -3.3599    0.0000 C.ar    1  UNL1        0.1668
     23 C           5.5161   -0.1632    0.0000 C.3     1  UNL1        0.0153
     24 C           2.0000    2.8853    0.0000 C.ar    1  UNL1       -0.0155
     25 C           4.1585    4.5161    0.0000 C.3     1  UNL1        0.2333
     26 C           5.1420   -4.5161    0.0000 C.3     1  UNL1        0.2332
     27 H           1.4747    0.1462    0.0000 H       1  UNL1        0.0624
     28 H           1.4619   -1.5195    0.0000 H       1  UNL1        0.0624
     29 H           5.2829   -1.4050    0.0000 H       1  UNL1        0.0662
     30 H           1.4747    1.5275    0.0000 H       1  UNL1        0.0625
     31 H           2.3556   -3.1253    0.0000 H       1  UNL1        0.0661
     32 H           5.2061   -0.7001    0.0000 H       1  UNL1        0.0457
     33 H           6.0530   -0.4732    0.0000 H       1  UNL1        0.0457
     34 H           5.8261    0.3738    0.0000 H       1  UNL1        0.0457
     35 H           1.4619    3.1932    0.0000 H       1  UNL1        0.0655
     36 H           4.7495    4.7033    0.0000 H       1  UNL1        0.1166
     37 H           4.0344    5.1235    0.0000 H       1  UNL1        0.1166
     38 H           5.0180   -5.1235    0.0000 H       1  UNL1        0.1166
     39 H           5.7331   -4.7033    0.0000 H       1  UNL1        0.1166
@<TRIPOS>BOND
     1     1    14    1
     2     1    25    1
     3     2    19    1
     4     2    25    1
     5     3    21    1
     6     3    26    1
     7     4    22    1
     8     4    26    1
     9     5    13    2
    10     6     7   ar
    11     6    13   ar
    12     6    23    1
    13     7     8   ar
    14     7    10   ar
    15     8     9   ar
    16     8    15   ar
    17     9    11   ar
    18     9    18   ar
    19    10    12   ar
    20    10    17   ar
    21    11    13   ar
    22    11    14   ar
    23    12    16   ar
    24    12    20   ar
    25    14    19   ar
    26    15    16   ar
    27    15    27    1
    28    16    28    1
    29    17    21   ar
    30    17    29    1
    31    18    24   ar
    32    18    30    1
    33    19    24   ar
    34    20    22   ar
    35    20    31    1
    36    21    22   ar
    37    23    32    1
    38    23    33    1
    39    23    34    1
    40    24    35    1
    41    25    36    1
    42    25    37    1
    43    26    38    1
    44    26    39    1
