@<TRIPOS>MOLECULE
IMPHY008785
 37 39 0 0 0
SMALL
GASTEIGER

@<TRIPOS>ATOM
      1 O           6.3981   -0.7277    0.0000 O.3     1  UNL1       -0.4793
      2 O           4.6497   -1.7623    0.0000 O.3     1  UNL1       -0.4885
      3 O           6.3981    2.2723    0.0000 O.2     1  UNL1       -0.2918
      4 O           2.8680   -0.7519    0.0000 O.3     1  UNL1       -0.4913
      5 C           7.2641   -0.2277    0.0000 C.3     1  UNL1        0.1323
      6 C           7.2641    0.7723    0.0000 C.3     1  UNL1        0.0519
      7 C           5.5320    0.7723    0.0000 C.ar    1  UNL1        0.0631
      8 C           5.5320   -0.2277    0.0000 C.ar    1  UNL1        0.1769
      9 C           6.3981    1.2723    0.0000 C.2     1  UNL1        0.1706
     10 C           8.1301   -0.7277    0.0000 C.ar    1  UNL1       -0.0069
     11 C           4.6381   -0.7624    0.0000 C.ar    1  UNL1        0.2043
     12 C           4.6381    1.3070    0.0000 C.ar    1  UNL1       -0.0440
     13 C           3.7320   -0.2485    0.0000 C.ar    1  UNL1        0.1652
     14 C           8.1301   -1.7277    0.0000 C.ar    1  UNL1       -0.0551
     15 C           8.9962   -0.2277    0.0000 C.ar    1  UNL1       -0.0551
     16 C           3.7320    0.7931    0.0000 C.ar    1  UNL1       -0.0154
     17 C           8.9962   -2.2277    0.0000 C.ar    1  UNL1       -0.0614
     18 C           9.8622   -0.7277    0.0000 C.ar    1  UNL1       -0.0614
     19 C           9.8622   -1.7277    0.0000 C.ar    1  UNL1       -0.0617
     20 C           3.7895   -2.2723    0.0000 C.3     1  UNL1        0.0791
     21 C           2.0000   -0.2552    0.0000 C.3     1  UNL1        0.0790
     22 H           7.2641   -0.8477    0.0000 H       1  UNL1        0.0789
     23 H           7.8747    0.6646    0.0000 H       1  UNL1        0.0385
     24 H           7.4762    1.3549    0.0000 H       1  UNL1        0.0385
     25 H           4.6453    1.9269    0.0000 H       1  UNL1        0.0627
     26 H           7.5932   -2.0377    0.0000 H       1  UNL1        0.0621
     27 H           8.9962    0.3923    0.0000 H       1  UNL1        0.0621
     28 H           3.1963    1.1052    0.0000 H       1  UNL1        0.0655
     29 H           8.9962   -2.8477    0.0000 H       1  UNL1        0.0618
     30 H          10.3991   -0.4177    0.0000 H       1  UNL1        0.0618
     31 H          10.3991   -2.0377    0.0000 H       1  UNL1        0.0618
     32 H           3.4733   -1.7390    0.0000 H       1  UNL1        0.0660
     33 H           3.2562   -2.5885    0.0000 H       1  UNL1        0.0660
     34 H           4.1057   -2.8056    0.0000 H       1  UNL1        0.0660
     35 H           2.3079    0.2829    0.0000 H       1  UNL1        0.0660
     36 H           1.4619    0.0527    0.0000 H       1  UNL1        0.0660
     37 H           1.6921   -0.7933    0.0000 H       1  UNL1        0.0660
@<TRIPOS>BOND
     1     1     5    1
     2     1     8    1
     3     2    11    1
     4     2    20    1
     5     3     9    2
     6     4    13    1
     7     4    21    1
     8     5     6    1
     9     5    10    1
    10     5    22    1
    11     6     9    1
    12     6    23    1
    13     6    24    1
    14     7     8   ar
    15     7     9    1
    16     7    12   ar
    17     8    11   ar
    18    10    14   ar
    19    10    15   ar
    20    11    13   ar
    21    12    16   ar
    22    12    25    1
    23    13    16   ar
    24    14    17   ar
    25    14    26    1
    26    15    18   ar
    27    15    27    1
    28    16    28    1
    29    17    19   ar
    30    17    29    1
    31    18    19   ar
    32    18    30    1
    33    19    31    1
    34    20    32    1
    35    20    33    1
    36    20    34    1
    37    21    35    1
    38    21    36    1
    39    21    37    1
