@<TRIPOS>MOLECULE
IMPHY008979
 22 24 0 0 0
SMALL
GASTEIGER

@<TRIPOS>ATOM
      1 O           5.3902    0.8455    0.0000 O.3     1  UNL1       -0.4828
      2 O           9.5437   -2.3545    0.0000 O.3     1  UNL1       -0.2257
      3 O           7.2422   -1.9860    0.0000 O.3     1  UNL1       -0.2868
      4 C           9.4391   -0.3572    0.0000 C.3     1  UNL1        0.0325
      5 C           7.7344    0.6874    0.0000 C.3     1  UNL1        0.0343
      6 C           7.9932    1.6533    0.0000 C.3     1  UNL1        0.1335
      7 C           7.2566    2.6360    0.0000 C.3     1  UNL1        0.0446
      8 C          10.2162    0.2721    0.0000 C.3     1  UNL1        0.0063
      9 C           9.8578    1.2057    0.0000 C.3     1  UNL1        0.0401
     10 C           9.4914   -1.3559    0.0000 C.3     1  UNL1        0.1270
     11 C           6.1992   -0.5557    0.0000 C.ar    1  UNL1        0.0505
     12 C           8.2520    2.6193    0.0000 C.3     1  UNL1        0.0436
     13 C           5.2857   -0.1490    0.0000 C.ar    1  UNL1        0.1369
     14 C          10.4900   -1.3035    0.0000 C.3     1  UNL1        0.0329
     15 C           8.4928   -1.4082    0.0000 C.3     1  UNL1        0.0329
     16 C           6.3241   -1.5899    0.0000 C.ar    1  UNL1        0.1943
     17 C           4.4336   -0.7482    0.0000 C.ar    1  UNL1        0.0325
     18 C           4.5345   -1.7849    0.0000 C.ar    1  UNL1       -0.0160
     19 C           5.4861   -2.2086    0.0000 C.ar    1  UNL1        0.0376
     20 C           3.7232   -2.3696    0.0000 C.3     1  UNL1        0.0266
     21 C           2.8113   -1.9593    0.0000 C.3     1  UNL1        0.0047
     22 C           2.0000   -2.5440    0.0000 C.3     1  UNL1        0.0004
@<TRIPOS>BOND
     1     1     6    1
     2     1    13    1
     3     2    10    1
     4     3    16    1
     5     4     5    1
     6     4     8    1
     7     4    10    1
     8     5     7    1
     9     5    11    1
    10     6     7    1
    11     6     9    1
    12     6    12    1
    13     8     9    1
    14    10    14    1
    15    10    15    1
    16    11    13   ar
    17    11    16   ar
    18    13    17   ar
    19    16    19   ar
    20    17    18   ar
    21    18    19   ar
    22    18    20    1
    23    20    21    1
    24    21    22    1
