@<TRIPOS>MOLECULE
IMPHY011450
 30 34 0 0 0
SMALL
GASTEIGER

@<TRIPOS>ATOM
      1 O           8.0629   -0.4910    0.0000 O.3     1  UNL1       -0.4784
      2 O           4.9867    1.2530    0.0000 O.3     1  UNL1       -0.4783
      3 O           5.0145   -2.2830    0.0000 O.2     1  UNL1       -0.4207
      4 O           6.5182   -3.1432    0.0000 O.2     1  UNL1       -0.2910
      5 O           3.4762   -3.1590    0.0000 O.2     1  UNL1       -0.2445
      6 C           8.0698   -2.2911    0.0000 C.3     1  UNL1        0.1020
      7 C           8.5906   -1.3890    0.0000 C.3     1  UNL1        0.1732
      8 C           6.5213   -1.3730    0.0000 C.ar    1  UNL1        0.1035
      9 C           7.0213   -0.5070    0.0000 C.ar    1  UNL1        0.1469
     10 C           6.5213    0.3590    0.0000 C.ar    1  UNL1        0.0680
     11 C           5.5213    0.3590    0.0000 C.ar    1  UNL1        0.1443
     12 C           7.0282   -2.2830    0.0000 C.2     1  UNL1        0.1820
     13 C           5.5005    2.1590    0.0000 C.3     1  UNL1        0.1517
     14 C           5.0213   -0.5070    0.0000 C.ar    1  UNL1        0.0691
     15 C           5.5213   -1.3730    0.0000 C.ar    1  UNL1        0.1572
     16 C           8.5664   -3.1590    0.0000 C.3     1  UNL1        0.0119
     17 C           7.0560    1.2530    0.0000 C.2     1  UNL1        0.0049
     18 C           6.5422    2.1590    0.0000 C.2     1  UNL1        0.0130
     19 C           9.5906   -1.3851    0.0000 C.3     1  UNL1        0.0477
     20 C           3.9798   -0.4910    0.0000 C.ar    1  UNL1        0.0123
     21 C           5.4967    3.1590    0.0000 C.3     1  UNL1        0.0483
     22 C           4.6326    2.6557    0.0000 C.3     1  UNL1        0.0483
     23 C           3.4521   -1.3890    0.0000 C.ar    1  UNL1        0.0825
     24 C           3.4899    0.3808    0.0000 C.ar    1  UNL1        0.0004
     25 C           3.9729   -2.2911    0.0000 C.ar    1  UNL1        0.3459
     26 C           2.4900    0.3924    0.0000 C.ar    1  UNL1        0.0000
     27 C           3.9999    1.2410    0.0000 C.ar    1  UNL1        0.0000
     28 C           2.0000    1.2641    0.0000 C.ar    1  UNL1        0.0000
     29 C           3.5099    2.1127    0.0000 C.ar    1  UNL1        0.0000
     30 C           2.5100    2.1243    0.0000 C.ar    1  UNL1        0.0000
@<TRIPOS>BOND
     1     1     7    1
     2     1     9    1
     3     2    11    1
     4     2    13    1
     5     3    15   ar
     6     3    25   ar
     7     4    12    2
     8     5    25    2
     9     6     7    1
    10     6    12    1
    11     6    16    1
    12     7    19    1
    13     8     9   ar
    14     8    12    1
    15     8    15   ar
    16     9    10   ar
    17    10    11   ar
    18    10    17    1
    19    11    14   ar
    20    13    18    1
    21    13    21    1
    22    13    22    1
    23    14    15   ar
    24    14    20   ar
    25    17    18    2
    26    20    23   ar
    27    20    24    1
    28    23    25   ar
    29    24    26   ar
    30    24    27   ar
    31    26    28   ar
    32    27    29   ar
    33    28    30   ar
    34    29    30   ar
