@<TRIPOS>MOLECULE
IMPHY010591
 57 61 0 0 0
SMALL
GASTEIGER

@<TRIPOS>ATOM
      1 O          10.4786   -1.4311    0.0000 O.3     1  UNL1       -0.4796
      2 O           6.0682   -0.1264    0.0000 O.3     1  UNL1       -0.4802
      3 O          10.1214    1.8732    0.0000 O.3     1  UNL1       -0.3943
      4 O           8.6663   -2.6264    0.0000 O.3     1  UNL1       -0.5033
      5 O           7.8003    1.8736    0.0000 O.3     1  UNL1       -0.3798
      6 O           6.0682    2.8736    0.0000 O.2     1  UNL1       -0.2889
      7 O          14.0622   -2.3584    0.0000 O.3     1  UNL1       -0.4914
      8 O           4.3198    2.9082    0.0000 O.3     1  UNL1       -0.5058
      9 O          15.0622   -0.6264    0.0000 O.3     1  UNL1       -0.5033
     10 O           2.5381   -0.1505    0.0000 O.3     1  UNL1       -0.5065
     11 C          10.4786    0.1784    0.0000 C.3     1  UNL1        0.0520
     12 C          11.0622   -0.6264    0.0000 C.3     1  UNL1        0.1344
     13 C           9.5323   -0.1264    0.0000 C.ar    1  UNL1        0.0074
     14 C           9.5323   -1.1264    0.0000 C.ar    1  UNL1        0.1662
     15 C           7.8003   -0.1264    0.0000 C.ar    1  UNL1       -0.0005
     16 C          10.7892    1.1289    0.0000 C.3     1  UNL1        0.0548
     17 C           8.6663    0.3736    0.0000 C.ar    1  UNL1       -0.0476
     18 C           6.9343    0.3736    0.0000 C.3     1  UNL1        0.1582
     19 C          12.0622   -0.6264    0.0000 C.ar    1  UNL1       -0.0030
     20 C           8.6663   -1.6264    0.0000 C.ar    1  UNL1        0.1591
     21 C           6.9343    1.3736    0.0000 C.3     1  UNL1        0.1585
     22 C           7.8003   -1.1264    0.0000 C.ar    1  UNL1       -0.0097
     23 C          12.5622   -1.4924    0.0000 C.ar    1  UNL1       -0.0096
     24 C           6.0682    1.8736    0.0000 C.2     1  UNL1        0.2024
     25 C          12.5622    0.2397    0.0000 C.ar    1  UNL1       -0.0514
     26 C           5.2022    1.3736    0.0000 C.ar    1  UNL1        0.1033
     27 C           5.2022    0.3736    0.0000 C.ar    1  UNL1        0.1391
     28 C          13.5622   -1.4924    0.0000 C.ar    1  UNL1        0.1616
     29 C          13.5622    0.2397    0.0000 C.ar    1  UNL1       -0.0161
     30 C           4.3083    1.9083    0.0000 C.ar    1  UNL1        0.1344
     31 C          14.0622   -0.6264    0.0000 C.ar    1  UNL1        0.1585
     32 C           4.3083   -0.1610    0.0000 C.ar    1  UNL1        0.0225
     33 C           3.4022    0.3528    0.0000 C.ar    1  UNL1        0.1238
     34 C           3.4022    1.3945    0.0000 C.ar    1  UNL1        0.0222
     35 C          13.5622   -3.2244    0.0000 C.3     1  UNL1        0.0790
     36 H          10.0411    0.6177    0.0000 H       1  UNL1        0.0412
     37 H          11.3439   -1.1787    0.0000 H       1  UNL1        0.0791
     38 H          11.3362    0.8369    0.0000 H       1  UNL1        0.0564
     39 H          11.1718    1.6168    0.0000 H       1  UNL1        0.0564
     40 H           8.6663    0.9936    0.0000 H       1  UNL1        0.0625
     41 H           6.9343   -0.2464    0.0000 H       1  UNL1        0.0815
     42 H           6.9343    1.9936    0.0000 H       1  UNL1        0.0718
     43 H           7.2634   -1.4364    0.0000 H       1  UNL1        0.0659
     44 H          12.2522   -2.0293    0.0000 H       1  UNL1        0.0659
     45 H          12.2522    0.7766    0.0000 H       1  UNL1        0.0623
     46 H          10.3140    2.4625    0.0000 H       1  UNL1        0.2094
     47 H          13.8722    0.7766    0.0000 H       1  UNL1        0.0655
     48 H           8.1294   -2.9364    0.0000 H       1  UNL1        0.2923
     49 H           7.8003    2.4936    0.0000 H       1  UNL1        0.2105
     50 H           4.3154   -0.7810    0.0000 H       1  UNL1        0.0691
     51 H           2.8665    1.7065    0.0000 H       1  UNL1        0.0691
     52 H           3.7865    3.2244    0.0000 H       1  UNL1        0.2922
     53 H          15.3722   -0.0894    0.0000 H       1  UNL1        0.2923
     54 H          13.0252   -2.9144    0.0000 H       1  UNL1        0.0660
     55 H          13.2522   -3.7614    0.0000 H       1  UNL1        0.0660
     56 H          14.0991   -3.5344    0.0000 H       1  UNL1        0.0660
     57 H           2.0000    0.1574    0.0000 H       1  UNL1        0.2921
@<TRIPOS>BOND
     1     1    12    1
     2     1    14    1
     3     2    18    1
     4     2    27    1
     5     3    16    1
     6     3    46    1
     7     4    20    1
     8     4    48    1
     9    21     5    1
    10     5    49    1
    11     6    24    2
    12     7    28    1
    13     7    35    1
    14     8    30    1
    15     8    52    1
    16     9    31    1
    17     9    53    1
    18    10    33    1
    19    10    57    1
    20    11    12    1
    21    11    13    1
    22    11    16    1
    23    11    36    1
    24    12    19    1
    25    12    37    1
    26    13    14   ar
    27    13    17   ar
    28    14    20   ar
    29    15    17   ar
    30    18    15    1
    31    15    22   ar
    32    16    38    1
    33    16    39    1
    34    17    40    1
    35    18    21    1
    36    18    41    1
    37    19    23   ar
    38    19    25   ar
    39    20    22   ar
    40    21    24    1
    41    21    42    1
    42    22    43    1
    43    23    28   ar
    44    23    44    1
    45    24    26    1
    46    25    29   ar
    47    25    45    1
    48    26    27   ar
    49    26    30   ar
    50    27    32   ar
    51    28    31   ar
    52    29    31   ar
    53    29    47    1
    54    30    34   ar
    55    32    33   ar
    56    32    50    1
    57    33    34   ar
    58    34    51    1
    59    35    54    1
    60    35    55    1
    61    35    56    1
