@<TRIPOS>MOLECULE
IMPHY007917
 45 46 0 0 0
SMALL
GASTEIGER

@<TRIPOS>ATOM
      1 O           2.3100    0.1068    0.0000 O.3     1  UNL1       -0.3885
      2 O           3.3100   -1.8932    0.0000 O.3     1  UNL1       -0.3946
      3 C           5.0420    0.1068    0.0000 C.3     1  UNL1       -0.0212
      4 C           5.0420    1.1068    0.0000 C.3     1  UNL1       -0.0300
      5 C           4.1760   -0.3932    0.0000 C.3     1  UNL1        0.0164
      6 C           5.9360    1.6415    0.0000 C.3     1  UNL1       -0.0315
      7 C           5.9360   -0.4279    0.0000 C.3     1  UNL1       -0.0469
      8 C           3.3100    0.1068    0.0000 C.3     1  UNL1        0.0687
      9 C           4.1760    1.6068    0.0000 C.3     1  UNL1       -0.0466
     10 C           6.8421    1.1276    0.0000 C.3     1  UNL1       -0.0476
     11 C           3.3100    1.1068    0.0000 C.3     1  UNL1       -0.0236
     12 C           6.8421    0.0860    0.0000 C.3     1  UNL1       -0.0521
     13 C           5.0420   -0.8932    0.0000 C.3     1  UNL1       -0.0589
     14 C           4.1760   -1.3932    0.0000 C.3     1  UNL1        0.0501
     15 C           6.4260    2.5132    0.0000 C.3     1  UNL1       -0.0595
     16 C           5.4260    2.5016    0.0000 C.3     1  UNL1       -0.0595
     17 C           2.8100   -0.7592    0.0000 C.3     1  UNL1       -0.0357
     18 H           5.0355    1.9568    0.0000 H       1  UNL1        0.0311
     19 H           3.6391   -0.7032    0.0000 H       1  UNL1        0.0356
     20 H           5.5314   -0.8977    0.0000 H       1  UNL1        0.0271
     21 H           6.3296   -0.9069    0.0000 H       1  UNL1        0.0271
     22 H           4.5746    2.0817    0.0000 H       1  UNL1        0.0269
     23 H           3.7775    2.0817    0.0000 H       1  UNL1        0.0269
     24 H           7.4529    1.0215    0.0000 H       1  UNL1        0.0271
     25 H           7.0511    1.7113    0.0000 H       1  UNL1        0.0271
     26 H           3.0980    1.6894    0.0000 H       1  UNL1        0.0293
     27 H           2.6994    0.9991    0.0000 H       1  UNL1        0.0293
     28 H           7.0511   -0.4977    0.0000 H       1  UNL1        0.0266
     29 H           7.4529    0.1921    0.0000 H       1  UNL1        0.0266
     30 H           4.4220   -0.8932    0.0000 H       1  UNL1        0.0235
     31 H           5.0420   -1.5132    0.0000 H       1  UNL1        0.0235
     32 H           5.6620   -0.8932    0.0000 H       1  UNL1        0.0235
     33 H           4.3881   -1.9758    0.0000 H       1  UNL1        0.0561
     34 H           4.7866   -1.2855    0.0000 H       1  UNL1        0.0561
     35 H           6.9664    2.2094    0.0000 H       1  UNL1        0.0235
     36 H           6.7297    3.0537    0.0000 H       1  UNL1        0.0235
     37 H           5.8855    2.8170    0.0000 H       1  UNL1        0.0235
     38 H           5.9593    2.8178    0.0000 H       1  UNL1        0.0235
     39 H           5.1098    3.0350    0.0000 H       1  UNL1        0.0235
     40 H           4.8927    2.1854    0.0000 H       1  UNL1        0.0235
     41 H           2.2731   -0.4492    0.0000 H       1  UNL1        0.0257
     42 H           2.5000   -1.2962    0.0000 H       1  UNL1        0.0257
     43 H           3.3469   -1.0692    0.0000 H       1  UNL1        0.0257
     44 H           2.0000    0.6437    0.0000 H       1  UNL1        0.2102
     45 H           3.3100   -2.5132    0.0000 H       1  UNL1        0.2094
@<TRIPOS>BOND
     1     8     1    1
     2     1    44    1
     3     2    14    1
     4     2    45    1
     5     3     4    1
     6     3     5    1
     7     3     7    1
     8     3    13    1
     9     4     6    1
    10     4     9    1
    11     4    18    1
    12     5     8    1
    13     5    14    1
    14     5    19    1
    15     6    10    1
    16     6    15    1
    17     6    16    1
    18     7    12    1
    19     7    20    1
    20     7    21    1
    21     8    11    1
    22     8    17    1
    23     9    11    1
    24     9    22    1
    25     9    23    1
    26    10    12    1
    27    10    24    1
    28    10    25    1
    29    11    26    1
    30    11    27    1
    31    12    28    1
    32    12    29    1
    33    13    30    1
    34    13    31    1
    35    13    32    1
    36    14    33    1
    37    14    34    1
    38    15    35    1
    39    15    36    1
    40    15    37    1
    41    16    38    1
    42    16    39    1
    43    16    40    1
    44    17    41    1
    45    17    42    1
    46    17    43    1
