@<TRIPOS>MOLECULE
IMPHY001032
 78 82 0 0 0
SMALL
GASTEIGER

@<TRIPOS>ATOM
      1 O           7.7331    0.0725    0.0000 O.3     1  UNL1       -0.3313
      2 O           4.2690   -0.9276    0.0000 O.3     1  UNL1       -0.3405
      3 O           6.0010   -0.9276    0.0000 O.3     1  UNL1       -0.3460
      4 O           6.0010    2.0724    0.0000 O.3     1  UNL1       -0.3865
      5 O           7.7331    3.0724    0.0000 O.3     1  UNL1       -0.3864
      6 O           9.4651    0.0725    0.0000 O.3     1  UNL1       -0.4515
      7 O           6.0010   -2.9276    0.0000 O.3     1  UNL1       -0.3841
      8 O           9.4651    2.0724    0.0000 O.3     1  UNL1       -0.3829
      9 O           4.2690   -3.9276    0.0000 O.3     1  UNL1       -0.3864
     10 O           2.5369   -2.9276    0.0000 O.3     1  UNL1       -0.3865
     11 O           2.5369    0.0725    0.0000 O.3     1  UNL1       -0.3924
     12 O          12.0632    0.5724    0.0000 O.2     1  UNL1       -0.1997
     13 O          10.3094    3.6039    0.0000 O.3     1  UNL1       -0.5057
     14 O          13.8492    3.6176    0.0000 O.3     1  UNL1       -0.5063
     15 O           9.4651   -2.9276    0.0000 O.3     1  UNL1       -0.4913
     16 O          12.9292   -2.9276    0.0000 O.3     1  UNL1       -0.5032
     17 O          11.1972   -3.9276    0.0000 O.3     1  UNL1       -0.5009
     18 C           6.8671    0.5724    0.0000 C.3     1  UNL1        0.1144
     19 C           6.8671    1.5724    0.0000 C.3     1  UNL1        0.1120
     20 C           7.7331    2.0724    0.0000 C.3     1  UNL1        0.1152
     21 C           5.1350   -2.4276    0.0000 C.3     1  UNL1        0.1341
     22 C           8.5991    1.5724    0.0000 C.3     1  UNL1        0.1454
     23 C           4.2690   -2.9276    0.0000 C.3     1  UNL1        0.1141
     24 C           5.1350   -1.4276    0.0000 C.3     1  UNL1        0.1880
     25 C           3.4030   -2.4276    0.0000 C.3     1  UNL1        0.1119
     26 C           3.4030   -1.4276    0.0000 C.3     1  UNL1        0.1130
     27 C           8.5991    0.5724    0.0000 C.3     1  UNL1        0.2312
     28 C           6.0010    0.0725    0.0000 C.3     1  UNL1        0.0796
     29 C           2.5369   -0.9276    0.0000 C.3     1  UNL1        0.0730
     30 C          10.3312    0.5724    0.0000 C.ar    1  UNL1        0.2288
     31 C          11.1972    0.0725    0.0000 C.ar    1  UNL1        0.4047
     32 C          10.3312    1.5724    0.0000 C.ar    1  UNL1        0.0093
     33 C          11.1972    2.0724    0.0000 C.ar    1  UNL1        0.1241
     34 C          11.1972   -0.9276    0.0000 C.ar    1  UNL1        0.0899
     35 C          12.0632    1.5724    0.0000 C.ar    1  UNL1        0.3708
     36 C          11.1811    3.1140    0.0000 C.ar    1  UNL1        0.1366
     37 C          12.9732    2.0793    0.0000 C.ar    1  UNL1        0.0847
     38 C          10.3312   -1.4276    0.0000 C.ar    1  UNL1        0.0002
     39 C          12.0632   -1.4276    0.0000 C.ar    1  UNL1       -0.0000
     40 C          12.0792    3.6417    0.0000 C.ar    1  UNL1        0.0225
     41 C          12.9812    3.1209    0.0000 C.ar    1  UNL1        0.1293
     42 C          10.3312   -2.4276    0.0000 C.ar    1  UNL1        0.1658
     43 C          12.0632   -2.4276    0.0000 C.ar    1  UNL1        0.1628
     44 C          11.1972   -2.9276    0.0000 C.ar    1  UNL1        0.2008
     45 C           9.4651   -3.9276    0.0000 C.3     1  UNL1        0.0790
     46 H           6.8671   -0.0475    0.0000 H       1  UNL1        0.0647
     47 H           6.3301    1.2624    0.0000 H       1  UNL1        0.0647
     48 H           7.1962    2.3824    0.0000 H       1  UNL1        0.0648
     49 H           5.1350   -3.0476    0.0000 H       1  UNL1        0.0671
     50 H           8.5991    2.1924    0.0000 H       1  UNL1        0.0683
     51 H           3.7320   -3.2376    0.0000 H       1  UNL1        0.0648
     52 H           5.6720   -1.7376    0.0000 H       1  UNL1        0.0937
     53 H           2.8660   -2.1176    0.0000 H       1  UNL1        0.0647
     54 H           3.4030   -0.8076    0.0000 H       1  UNL1        0.0647
     55 H           8.5991   -0.0475    0.0000 H       1  UNL1        0.1084
     56 H           5.7890    0.6551    0.0000 H       1  UNL1        0.0587
     57 H           5.3905   -0.0352    0.0000 H       1  UNL1        0.0587
     58 H           1.9264   -0.8199    0.0000 H       1  UNL1        0.0584
     59 H           2.3249   -1.5102    0.0000 H       1  UNL1        0.0584
     60 H           5.4641    1.7624    0.0000 H       1  UNL1        0.2100
     61 H           7.1962    3.3824    0.0000 H       1  UNL1        0.2100
     62 H           6.5380   -2.6176    0.0000 H       1  UNL1        0.2101
     63 H           9.4651    2.6924    0.0000 H       1  UNL1        0.2102
     64 H           3.7320   -4.2376    0.0000 H       1  UNL1        0.2100
     65 H           2.0000   -2.6176    0.0000 H       1  UNL1        0.2100
     66 H           2.0000    0.3824    0.0000 H       1  UNL1        0.2095
     67 H           9.7942    1.8824    0.0000 H       1  UNL1        0.0667
     68 H          13.5065    1.7631    0.0000 H       1  UNL1        0.0749
     69 H           9.7942   -1.1176    0.0000 H       1  UNL1        0.0664
     70 H          12.6002   -1.1176    0.0000 H       1  UNL1        0.0664
     71 H          12.0768    4.2617    0.0000 H       1  UNL1        0.0691
     72 H          10.3022    4.2239    0.0000 H       1  UNL1        0.2922
     73 H          13.8516    4.2376    0.0000 H       1  UNL1        0.2921
     74 H          13.4662   -2.6176    0.0000 H       1  UNL1        0.2923
     75 H          11.7341   -4.2376    0.0000 H       1  UNL1        0.2924
     76 H           8.8451   -3.9276    0.0000 H       1  UNL1        0.0660
     77 H           9.4651   -4.5476    0.0000 H       1  UNL1        0.0660
     78 H          10.0851   -3.9276    0.0000 H       1  UNL1        0.0660
@<TRIPOS>UNITY_ATOM_ATTR
12 1
charge 1
@<TRIPOS>BOND
     1     1    18    1
     2     1    27    1
     3     2    24    1
     4     2    26    1
     5    24     3    1
     6     3    28    1
     7    19     4    1
     8     4    60    1
     9     5    20    1
    10     5    61    1
    11    27     6    1
    12     6    30    1
    13     7    21    1
    14     7    62    1
    15     8    22    1
    16     8    63    1
    17     9    23    1
    18     9    64    1
    19    25    10    1
    20    10    65    1
    21    11    29    1
    22    11    66    1
    23    12    31   ar
    24    12    35   ar
    25    13    36    1
    26    13    72    1
    27    14    41    1
    28    14    73    1
    29    15    42    1
    30    15    45    1
    31    16    43    1
    32    16    74    1
    33    17    44    1
    34    17    75    1
    35    18    19    1
    36    18    28    1
    37    18    46    1
    38    19    20    1
    39    19    47    1
    40    20    22    1
    41    20    48    1
    42    21    23    1
    43    21    24    1
    44    21    49    1
    45    22    27    1
    46    22    50    1
    47    23    25    1
    48    23    51    1
    49    24    52    1
    50    25    26    1
    51    25    53    1
    52    26    29    1
    53    26    54    1
    54    27    55    1
    55    28    56    1
    56    28    57    1
    57    29    58    1
    58    29    59    1
    59    30    31   ar
    60    30    32   ar
    61    31    34    1
    62    32    33   ar
    63    32    67    1
    64    33    35   ar
    65    33    36   ar
    66    34    38   ar
    67    34    39   ar
    68    35    37   ar
    69    36    40   ar
    70    37    41   ar
    71    37    68    1
    72    38    42   ar
    73    38    69    1
    74    39    43   ar
    75    39    70    1
    76    40    41   ar
    77    40    71    1
    78    42    44   ar
    79    43    44   ar
    80    45    76    1
    81    45    77    1
    82    45    78    1
