@<TRIPOS>MOLECULE
IMPHY010805
 85 91 0 0 0
SMALL
GASTEIGER

@<TRIPOS>ATOM
      1 O           6.4311    1.2758    0.0000 O.3     1  UNL1       -0.4482
      2 O           9.9244    3.2906    0.0000 O.3     1  UNL1       -0.4910
      3 O           6.9801    3.7303    0.0000 O.3     1  UNL1       -0.4884
      4 O           8.1903    4.2918    0.0000 O.3     1  UNL1       -0.4884
      5 O           8.9028   -2.1353    0.0000 O.3     1  UNL1       -0.5064
      6 O           5.1585   -2.9296    0.0000 O.3     1  UNL1       -0.4523
      7 O           6.7310   -4.1713    0.0000 O.3     1  UNL1       -0.4913
      8 O           5.8988    3.7214    0.0000 O.3     1  UNL1       -0.4914
      9 O           2.0000   -0.0111    0.0000 O.2     1  UNL1       -0.2850
     10 N           9.0584   -0.2166    0.0000 N.3     1  UNL1       -0.2977
     11 N           2.0906    1.7770    0.0000 N.ar    1  UNL1       -0.2511
     12 C           8.1903    0.2846    0.0000 C.3     1  UNL1        0.0434
     13 C           8.1903    1.2870    0.0000 C.ar    1  UNL1        0.0228
     14 C           9.9265    0.2846    0.0000 C.3     1  UNL1        0.0033
     15 C           9.0584    1.7882    0.0000 C.ar    1  UNL1        0.0075
     16 C           9.9265    1.2870    0.0000 C.3     1  UNL1       -0.0108
     17 C           7.3222   -0.2166    0.0000 C.3     1  UNL1       -0.0042
     18 C           7.3222    1.7882    0.0000 C.ar    1  UNL1        0.1788
     19 C           9.0584    2.7906    0.0000 C.ar    1  UNL1        0.1689
     20 C           9.7012   -0.9826    0.0000 C.3     1  UNL1       -0.0122
     21 C           7.1676   -1.1983    0.0000 C.ar    1  UNL1       -0.0004
     22 C           7.3222    2.7906    0.0000 C.ar    1  UNL1        0.2082
     23 C           8.1903    3.2918    0.0000 C.ar    1  UNL1        0.2075
     24 C           7.9537   -1.8204    0.0000 C.ar    1  UNL1        0.1238
     25 C           6.2359   -1.5681    0.0000 C.ar    1  UNL1       -0.0090
     26 C           6.0902   -2.5598    0.0000 C.ar    1  UNL1        0.1703
     27 C           5.5630    1.7770    0.0000 C.ar    1  UNL1        0.1707
     28 C           7.8080   -2.8121    0.0000 C.ar    1  UNL1        0.0255
     29 C           6.8763   -3.1819    0.0000 C.ar    1  UNL1        0.1656
     30 C           9.9244    4.2906    0.0000 C.3     1  UNL1        0.0790
     31 C           4.6949    1.2758    0.0000 C.ar    1  UNL1       -0.0058
     32 C           5.5630    2.7795    0.0000 C.ar    1  UNL1        0.1627
     33 C           7.6229    4.4963    0.0000 C.3     1  UNL1        0.0791
     34 C           9.0563    4.7918    0.0000 C.3     1  UNL1        0.0791
     35 C           3.8268    1.7770    0.0000 C.ar    1  UNL1        0.0150
     36 C           3.8268    2.7795    0.0000 C.ar    1  UNL1       -0.0106
     37 C           4.6949    3.2807    0.0000 C.ar    1  UNL1       -0.0085
     38 C           2.9587    1.2758    0.0000 C.ar    1  UNL1        0.1187
     39 C           4.5443   -2.1981    0.0000 C.ar    1  UNL1        0.1287
     40 C           2.9587    3.2807    0.0000 C.ar    1  UNL1       -0.0357
     41 C           2.9587    0.2734    0.0000 C.2     1  UNL1        0.2118
     42 C           3.4669   -0.5074    0.0000 C.ar    1  UNL1        0.0241
     43 C           7.5152   -4.7918    0.0000 C.3     1  UNL1        0.0790
     44 C           5.0071   -1.3088    0.0000 C.ar    1  UNL1       -0.0187
     45 C           3.5429   -2.2419    0.0000 C.ar    1  UNL1       -0.0187
     46 C           2.0906    2.7795    0.0000 C.ar    1  UNL1        0.0290
     47 C           4.4684   -0.4635    0.0000 C.ar    1  UNL1       -0.0474
     48 C           3.0042   -1.3966    0.0000 C.ar    1  UNL1       -0.0474
     49 C           5.2509    4.4832    0.0000 C.3     1  UNL1        0.0790
     50 H           8.1903   -0.5654    0.0000 H       1  UNL1        0.0517
     51 H          10.1385   -0.2980    0.0000 H       1  UNL1        0.0430
     52 H          10.5371    0.3922    0.0000 H       1  UNL1        0.0430
     53 H          10.5371    1.1793    0.0000 H       1  UNL1        0.0327
     54 H          10.1385    1.8696    0.0000 H       1  UNL1        0.0327
     55 H           7.1407    0.3762    0.0000 H       1  UNL1        0.0333
     56 H           6.7037   -0.2603    0.0000 H       1  UNL1        0.0333
     57 H           9.2263   -1.3812    0.0000 H       1  UNL1        0.0391
     58 H          10.0998   -1.4575    0.0000 H       1  UNL1        0.0391
     59 H          10.1761   -0.5840    0.0000 H       1  UNL1        0.0391
     60 H           5.7497   -1.1833    0.0000 H       1  UNL1        0.0659
     61 H           8.2942   -3.1969    0.0000 H       1  UNL1        0.0692
     62 H          10.5444    4.2906    0.0000 H       1  UNL1        0.0660
     63 H           9.9244    4.9106    0.0000 H       1  UNL1        0.0660
     64 H           9.3044    4.2906    0.0000 H       1  UNL1        0.0660
     65 H           4.6949    0.6558    0.0000 H       1  UNL1        0.0662
     66 H           8.0979    4.0978    0.0000 H       1  UNL1        0.0660
     67 H           8.0215    4.9713    0.0000 H       1  UNL1        0.0660
     68 H           7.1480    4.8949    0.0000 H       1  UNL1        0.0660
     69 H           9.0280   -2.7425    0.0000 H       1  UNL1        0.2921
     70 H           9.3663    4.2549    0.0000 H       1  UNL1        0.0660
     71 H           9.5932    5.1018    0.0000 H       1  UNL1        0.0660
     72 H           8.7463    5.3287    0.0000 H       1  UNL1        0.0660
     73 H           4.6949    3.9007    0.0000 H       1  UNL1        0.0661
     74 H           2.9587    3.9007    0.0000 H       1  UNL1        0.0639
     75 H           7.1304   -5.2780    0.0000 H       1  UNL1        0.0660
     76 H           8.0014   -5.1765    0.0000 H       1  UNL1        0.0660
     77 H           7.8999   -4.3056    0.0000 H       1  UNL1        0.0660
     78 H           5.6265   -1.2817    0.0000 H       1  UNL1        0.0654
     79 H           3.2567   -2.7919    0.0000 H       1  UNL1        0.0654
     80 H           1.5536    3.0895    0.0000 H       1  UNL1        0.0830
     81 H           4.7546    0.0865    0.0000 H       1  UNL1        0.0626
     82 H           2.3848   -1.4237    0.0000 H       1  UNL1        0.0626
     83 H           5.7232    4.8848    0.0000 H       1  UNL1        0.0660
     84 H           4.8493    4.9555    0.0000 H       1  UNL1        0.0660
     85 H           4.7786    4.0815    0.0000 H       1  UNL1        0.0660
@<TRIPOS>BOND
     1     1    18    1
     2     1    27    1
     3     2    19    1
     4     2    30    1
     5     3    22    1
     6     3    33    1
     7     4    23    1
     8     4    34    1
     9     5    24    1
    10     5    69    1
    11     6    26    1
    12     6    39    1
    13     7    29    1
    14     7    43    1
    15     8    32    1
    16     8    49    1
    17     9    41    2
    18    10    12    1
    19    10    14    1
    20    10    20    1
    21    11    38   ar
    22    11    46   ar
    23    12    13    1
    24    12    17    1
    25    12    50    1
    26    13    15   ar
    27    13    18   ar
    28    14    16    1
    29    14    51    1
    30    14    52    1
    31    15    16    1
    32    15    19   ar
    33    16    53    1
    34    16    54    1
    35    17    21    1
    36    17    55    1
    37    17    56    1
    38    18    22   ar
    39    19    23   ar
    40    20    57    1
    41    20    58    1
    42    20    59    1
    43    21    24   ar
    44    21    25   ar
    45    22    23   ar
    46    24    28   ar
    47    25    26   ar
    48    25    60    1
    49    26    29   ar
    50    27    31   ar
    51    27    32   ar
    52    28    29   ar
    53    28    61    1
    54    30    62    1
    55    30    63    1
    56    30    64    1
    57    31    35   ar
    58    31    65    1
    59    32    37   ar
    60    33    66    1
    61    33    67    1
    62    33    68    1
    63    34    70    1
    64    34    71    1
    65    34    72    1
    66    35    36   ar
    67    35    38   ar
    68    36    37   ar
    69    36    40   ar
    70    37    73    1
    71    38    41    1
    72    39    44   ar
    73    39    45   ar
    74    40    46   ar
    75    40    74    1
    76    41    42    1
    77    42    47   ar
    78    42    48   ar
    79    43    75    1
    80    43    76    1
    81    43    77    1
    82    44    47   ar
    83    44    78    1
    84    45    48   ar
    85    45    79    1
    86    46    80    1
    87    47    81    1
    88    48    82    1
    89    49    83    1
    90    49    84    1
    91    49    85    1
