@<TRIPOS>MOLECULE
IMPHY015150
 32 31 0 0 0
SMALL
GASTEIGER

@<TRIPOS>ATOM
      1 O           7.7331    0.7500    0.0000 O.3     1  UNL1       -0.3775
      2 O           5.1350    0.2500    0.0000 O.3     1  UNL1       -0.3750
      3 O           2.5369    0.7500    0.0000 O.3     1  UNL1       -0.3898
      4 C           9.4651    0.7500    0.0000 C.3     1  UNL1       -0.0297
      5 C           8.5991    0.2500    0.0000 C.3     1  UNL1        0.0478
      6 C          10.3312    0.2500    0.0000 C.3     1  UNL1       -0.0538
      7 C           6.8671    0.2500    0.0000 C.3     1  UNL1        0.0710
      8 C           3.4030    0.2500    0.0000 C.3     1  UNL1        0.0757
      9 C           4.2690    0.7500    0.0000 C.3     1  UNL1        0.0734
     10 C           6.0010    0.7500    0.0000 C.3     1  UNL1        0.0711
     11 C          11.1972    0.7500    0.0000 C.3     1  UNL1       -0.0652
     12 C           3.4030   -0.7500    0.0000 C.3     1  UNL1       -0.0368
     13 H           9.8637    1.2250    0.0000 H       1  UNL1        0.0287
     14 H           9.0666    1.2250    0.0000 H       1  UNL1        0.0287
     15 H           8.2006   -0.2249    0.0000 H       1  UNL1        0.0560
     16 H           8.9976   -0.2249    0.0000 H       1  UNL1        0.0560
     17 H           9.9326   -0.2249    0.0000 H       1  UNL1        0.0263
     18 H          10.7297   -0.2249    0.0000 H       1  UNL1        0.0263
     19 H           3.4030    0.8700    0.0000 H       1  UNL1        0.0613
     20 H           6.4685   -0.2249    0.0000 H       1  UNL1        0.0583
     21 H           7.2656   -0.2249    0.0000 H       1  UNL1        0.0583
     22 H           4.6675    1.2250    0.0000 H       1  UNL1        0.0585
     23 H           3.8705    1.2250    0.0000 H       1  UNL1        0.0585
     24 H           6.3996    1.2250    0.0000 H       1  UNL1        0.0583
     25 H           5.6025    1.2250    0.0000 H       1  UNL1        0.0583
     26 H          11.5072    0.2131    0.0000 H       1  UNL1        0.0230
     27 H          11.7341    1.0600    0.0000 H       1  UNL1        0.0230
     28 H          10.8872    1.2869    0.0000 H       1  UNL1        0.0230
     29 H           2.7830   -0.7500    0.0000 H       1  UNL1        0.0255
     30 H           3.4030   -1.3700    0.0000 H       1  UNL1        0.0255
     31 H           4.0230   -0.7500    0.0000 H       1  UNL1        0.0255
     32 H           2.0000    0.4400    0.0000 H       1  UNL1        0.2099
@<TRIPOS>BOND
     1     1     5    1
     2     1     7    1
     3     2     9    1
     4     2    10    1
     5     3     8    1
     6     3    32    1
     7     4     5    1
     8     4     6    1
     9     4    13    1
    10     4    14    1
    11     5    15    1
    12     5    16    1
    13     6    11    1
    14     6    17    1
    15     6    18    1
    16     7    10    1
    17     7    20    1
    18     7    21    1
    19     8     9    1
    20     8    12    1
    21     8    19    1
    22     9    22    1
    23     9    23    1
    24    10    24    1
    25    10    25    1
    26    11    26    1
    27    11    27    1
    28    11    28    1
    29    12    29    1
    30    12    30    1
    31    12    31    1
