@<TRIPOS>MOLECULE
IMPHY009171
 43 45 0 0 0
SMALL
GASTEIGER

@<TRIPOS>ATOM
      1 O           4.6497    1.7620    0.0000 O.2     1  UNL1       -0.2832
      2 O           2.8680    0.7516    0.0000 O.2     1  UNL1       -0.2835
      3 C           8.1741    0.7343    0.0000 C.3     1  UNL1       -0.0096
      4 C           8.1821    1.7759    0.0000 C.3     1  UNL1       -0.0436
      5 C           7.2641    0.2274    0.0000 C.ar    1  UNL1       -0.0378
      6 C           7.2800    2.2967    0.0000 C.3     1  UNL1       -0.0482
      7 C           6.3981    0.7274    0.0000 C.ar    1  UNL1       -0.0322
      8 C           6.3820    1.7690    0.0000 C.3     1  UNL1       -0.0267
      9 C           9.1740    0.7227    0.0000 C.3     1  UNL1       -0.0558
     10 C           8.6640   -0.1375    0.0000 C.3     1  UNL1       -0.0558
     11 C           5.5320    0.2274    0.0000 C.ar    1  UNL1        0.0361
     12 C           7.2641   -0.7726    0.0000 C.ar    1  UNL1       -0.0572
     13 C           5.5320   -0.7726    0.0000 C.ar    1  UNL1       -0.0134
     14 C           6.3981   -1.2726    0.0000 C.ar    1  UNL1       -0.0536
     15 C           4.6381    0.7621    0.0000 C.2     1  UNL1        0.2334
     16 C           4.6381   -1.3072    0.0000 C.2     1  UNL1       -0.0467
     17 C           3.7320   -0.7934    0.0000 C.2     1  UNL1        0.0063
     18 C           3.7320    0.2483    0.0000 C.2     1  UNL1        0.2293
     19 C           2.8680   -1.2967    0.0000 C.3     1  UNL1       -0.0178
     20 C           2.8718   -2.2967    0.0000 C.3     1  UNL1       -0.0585
     21 C           2.0000   -0.8001    0.0000 C.3     1  UNL1       -0.0585
     22 H           8.7922    1.6651    0.0000 H       1  UNL1        0.0274
     23 H           8.3957    2.3580    0.0000 H       1  UNL1        0.0274
     24 H           7.6774    2.7727    0.0000 H       1  UNL1        0.0269
     25 H           6.8791    2.7696    0.0000 H       1  UNL1        0.0269
     26 H           6.1640    2.3494    0.0000 H       1  UNL1        0.0313
     27 H           5.7729    1.6534    0.0000 H       1  UNL1        0.0313
     28 H           8.1236   -0.4412    0.0000 H       1  UNL1        0.0238
     29 H           8.9678   -0.6779    0.0000 H       1  UNL1        0.0238
     30 H           9.2045    0.1663    0.0000 H       1  UNL1        0.0238
     31 H           9.1669    0.1028    0.0000 H       1  UNL1        0.0238
     32 H           9.7940    0.7156    0.0000 H       1  UNL1        0.0238
     33 H           9.1812    1.3427    0.0000 H       1  UNL1        0.0238
     34 H           7.8010   -1.0826    0.0000 H       1  UNL1        0.0621
     35 H           6.3981   -1.8926    0.0000 H       1  UNL1        0.0624
     36 H           4.6453   -1.9272    0.0000 H       1  UNL1        0.0628
     37 H           2.3322   -1.6088    0.0000 H       1  UNL1        0.0345
     38 H           2.2518   -2.2991    0.0000 H       1  UNL1        0.0235
     39 H           2.8742   -2.9167    0.0000 H       1  UNL1        0.0235
     40 H           3.4918   -2.2943    0.0000 H       1  UNL1        0.0235
     41 H           2.3079   -0.2619    0.0000 H       1  UNL1        0.0235
     42 H           1.4619   -0.4921    0.0000 H       1  UNL1        0.0235
     43 H           1.6921   -1.3382    0.0000 H       1  UNL1        0.0235
@<TRIPOS>BOND
     1     1    15    2
     2     2    18    2
     3     3     4    1
     4     3     5    1
     5     3     9    1
     6     3    10    1
     7     4     6    1
     8     4    22    1
     9     4    23    1
    10     5     7   ar
    11     5    12   ar
    12     6     8    1
    13     6    24    1
    14     6    25    1
    15     7     8    1
    16     7    11   ar
    17     8    26    1
    18     8    27    1
    19     9    31    1
    20     9    32    1
    21     9    33    1
    22    10    28    1
    23    10    29    1
    24    10    30    1
    25    11    13   ar
    26    11    15    1
    27    12    14   ar
    28    12    34    1
    29    13    14   ar
    30    13    16    1
    31    14    35    1
    32    15    18    1
    33    16    17    2
    34    16    36    1
    35    17    18    1
    36    17    19    1
    37    19    20    1
    38    19    21    1
    39    19    37    1
    40    20    38    1
    41    20    39    1
    42    20    40    1
    43    21    41    1
    44    21    42    1
    45    21    43    1
