@<TRIPOS>MOLECULE
IMPHY002657
 125 128 0 0 0
SMALL
GASTEIGER

@<TRIPOS>ATOM
      1 O          15.8563   -3.6598    0.0000 O.3     1  UNL1       -0.4610
      2 O          14.9961   -2.1564    0.0000 O.2     1  UNL1       -0.2508
      3 C          21.2494   -0.6074    0.0000 C.3     1  UNL1       -0.0256
      4 C          21.2494   -1.6074    0.0000 C.3     1  UNL1       -0.0320
      5 C          20.3834   -2.1074    0.0000 C.3     1  UNL1       -0.0307
      6 C          19.5173   -1.6074    0.0000 C.3     1  UNL1       -0.0285
      7 C          22.1956   -0.3027    0.0000 C.3     1  UNL1       -0.0294
      8 C          20.3834   -0.1074    0.0000 C.3     1  UNL1       -0.0468
      9 C          18.6073   -2.1143    0.0000 C.3     1  UNL1       -0.0077
     10 C          22.1956   -1.9122    0.0000 C.3     1  UNL1       -0.0492
     11 C          19.5173   -0.6074    0.0000 C.3     1  UNL1       -0.0486
     12 C          22.7792   -1.1074    0.0000 C.3     1  UNL1       -0.0489
     13 C          20.3994   -3.1489    0.0000 C.3     1  UNL1       -0.0311
     14 C          21.2494    0.3926    0.0000 C.3     1  UNL1       -0.0590
     15 C          18.5993   -3.1559    0.0000 C.2     1  UNL1       -0.0638
     16 C          22.5063    0.6478    0.0000 C.3     1  UNL1       -0.0224
     17 C          17.6805   -1.5502    0.0000 C.3     1  UNL1       -0.0403
     18 C          19.5014   -3.6767    0.0000 C.2     1  UNL1       -0.0838
     19 C          18.6150   -1.1143    0.0000 C.3     1  UNL1       -0.0556
     20 C          17.6639   -3.7056    0.0000 C.3     1  UNL1        0.0061
     21 C          16.7326   -2.0781    0.0000 C.3     1  UNL1       -0.0146
     22 C          16.7242   -3.1631    0.0000 C.3     1  UNL1        0.1068
     23 C          21.8384    1.3921    0.0000 C.3     1  UNL1       -0.0587
     24 C          23.4848    0.8540    0.0000 C.2     1  UNL1       -0.0845
     25 C          23.7954    1.8046    0.0000 C.2     1  UNL1       -0.0843
     26 C          24.7739    2.0108    0.0000 C.3     1  UNL1       -0.0208
     27 C          14.9922   -3.1564    0.0000 C.2     1  UNL1        0.3073
     28 C          25.0846    2.9613    0.0000 C.3     1  UNL1       -0.0405
     29 C          25.4418    1.2665    0.0000 C.3     1  UNL1       -0.0494
     30 C          14.1243   -3.6531    0.0000 C.3     1  UNL1        0.0449
     31 C          26.0631    3.1675    0.0000 C.3     1  UNL1       -0.0621
     32 C          24.4168    3.7056    0.0000 C.3     1  UNL1       -0.0621
     33 C          26.4203    1.4727    0.0000 C.3     1  UNL1       -0.0647
     34 C          13.2602   -3.1498    0.0000 C.3     1  UNL1       -0.0430
     35 C          12.3922   -3.6464    0.0000 C.3     1  UNL1       -0.0526
     36 C          11.5281   -3.1431    0.0000 C.3     1  UNL1       -0.0530
     37 C          10.6602   -3.6397    0.0000 C.3     1  UNL1       -0.0531
     38 C           9.7961   -3.1364    0.0000 C.3     1  UNL1       -0.0531
     39 C           8.9282   -3.6331    0.0000 C.3     1  UNL1       -0.0531
     40 C           8.0641   -3.1297    0.0000 C.3     1  UNL1       -0.0531
     41 C           7.1961   -3.6264    0.0000 C.3     1  UNL1       -0.0531
     42 C           6.3320   -3.1230    0.0000 C.3     1  UNL1       -0.0531
     43 C           5.4641   -3.6197    0.0000 C.3     1  UNL1       -0.0531
     44 C           4.6000   -3.1164    0.0000 C.3     1  UNL1       -0.0531
     45 C           3.7320   -3.6130    0.0000 C.3     1  UNL1       -0.0533
     46 C           2.8680   -3.1097    0.0000 C.3     1  UNL1       -0.0559
     47 C           2.0000   -3.6064    0.0000 C.3     1  UNL1       -0.0653
     48 H          21.3393   -2.4527    0.0000 H       1  UNL1        0.0309
     49 H          21.1227   -2.5267    0.0000 H       1  UNL1        0.0309
     50 H          20.2535   -1.1824    0.0000 H       1  UNL1        0.0312
     51 H          23.0353   -0.1708    0.0000 H       1  UNL1        0.0312
     52 H          20.7819    0.3675    0.0000 H       1  UNL1        0.0271
     53 H          19.9848    0.3675    0.0000 H       1  UNL1        0.0271
     54 H          21.9446   -2.4791    0.0000 H       1  UNL1        0.0268
     55 H          22.7330   -2.2214    0.0000 H       1  UNL1        0.0268
     56 H          19.3053   -0.0248    0.0000 H       1  UNL1        0.0268
     57 H          18.9068   -0.7151    0.0000 H       1  UNL1        0.0268
     58 H          23.2401   -1.5222    0.0000 H       1  UNL1        0.0268
     59 H          23.2401   -0.6927    0.0000 H       1  UNL1        0.0268
     60 H          20.6175   -3.7293    0.0000 H       1  UNL1        0.0310
     61 H          21.0086   -3.0334    0.0000 H       1  UNL1        0.0310
     62 H          21.8694    0.3926    0.0000 H       1  UNL1        0.0235
     63 H          21.2494    1.0126    0.0000 H       1  UNL1        0.0235
     64 H          20.6294    0.3926    0.0000 H       1  UNL1        0.0235
     65 H          21.8996    0.5200    0.0000 H       1  UNL1        0.0343
     66 H          18.0887   -1.0835    0.0000 H       1  UNL1        0.0275
     67 H          17.2906   -1.0682    0.0000 H       1  UNL1        0.0275
     68 H          19.5038   -4.2967    0.0000 H       1  UNL1        0.0572
     69 H          19.2350   -1.1191    0.0000 H       1  UNL1        0.0238
     70 H          18.6198   -0.4943    0.0000 H       1  UNL1        0.0238
     71 H          17.9951   -1.1095    0.0000 H       1  UNL1        0.0238
     72 H          17.2666   -4.1816    0.0000 H       1  UNL1        0.0346
     73 H          18.0648   -4.1785    0.0000 H       1  UNL1        0.0346
     74 H          16.5281   -1.4929    0.0000 H       1  UNL1        0.0301
     75 H          16.1210   -2.1795    0.0000 H       1  UNL1        0.0301
     76 H          16.1891   -2.8500    0.0000 H       1  UNL1        0.0737
     77 H          22.2999    1.8062    0.0000 H       1  UNL1        0.0235
     78 H          21.4244    1.8536    0.0000 H       1  UNL1        0.0235
     79 H          21.3770    0.9781    0.0000 H       1  UNL1        0.0235
     80 H          23.8988    0.3926    0.0000 H       1  UNL1        0.0572
     81 H          23.3814    2.2660    0.0000 H       1  UNL1        0.0572
     82 H          24.5813    1.4215    0.0000 H       1  UNL1        0.0345
     83 H          24.4779    2.8334    0.0000 H       1  UNL1        0.0301
     84 H          24.9154    0.9388    0.0000 H       1  UNL1        0.0268
     85 H          25.6730    0.6912    0.0000 H       1  UNL1        0.0268
     86 H          13.7239   -4.1265    0.0000 H       1  UNL1        0.0377
     87 H          14.5210   -4.1296    0.0000 H       1  UNL1        0.0377
     88 H          26.1910    2.5608    0.0000 H       1  UNL1        0.0233
     89 H          24.8782    4.1197    0.0000 H       1  UNL1        0.0233
     90 H          24.0027    4.1671    0.0000 H       1  UNL1        0.0233
     91 H          23.9553    3.2915    0.0000 H       1  UNL1        0.0233
     92 H          26.6698    3.2954    0.0000 H       1  UNL1        0.0233
     93 H          25.9353    3.7742    0.0000 H       1  UNL1        0.0233
     94 H          26.5481    0.8660    0.0000 H       1  UNL1        0.0230
     95 H          27.0270    1.6006    0.0000 H       1  UNL1        0.0230
     96 H          26.2924    2.0794    0.0000 H       1  UNL1        0.0230
     97 H          13.6605   -2.6763    0.0000 H       1  UNL1        0.0270
     98 H          12.8635   -2.6733    0.0000 H       1  UNL1        0.0270
     99 H          11.9919   -4.1198    0.0000 H       1  UNL1        0.0265
    100 H          12.7889   -4.1229    0.0000 H       1  UNL1        0.0265
    101 H          11.9285   -2.6697    0.0000 H       1  UNL1        0.0265
    102 H          11.1314   -2.6666    0.0000 H       1  UNL1        0.0265
    103 H          10.2598   -4.1131    0.0000 H       1  UNL1        0.0265
    104 H          11.0569   -4.1162    0.0000 H       1  UNL1        0.0265
    105 H          10.1965   -2.6630    0.0000 H       1  UNL1        0.0265
    106 H           9.3994   -2.6599    0.0000 H       1  UNL1        0.0265
    107 H           8.5278   -4.1065    0.0000 H       1  UNL1        0.0265
    108 H           9.3248   -4.1095    0.0000 H       1  UNL1        0.0265
    109 H           8.4644   -2.6563    0.0000 H       1  UNL1        0.0265
    110 H           7.6674   -2.6532    0.0000 H       1  UNL1        0.0265
    111 H           6.7958   -4.0998    0.0000 H       1  UNL1        0.0265
    112 H           7.5928   -4.1029    0.0000 H       1  UNL1        0.0265
    113 H           6.7324   -2.6496    0.0000 H       1  UNL1        0.0265
    114 H           5.9353   -2.6466    0.0000 H       1  UNL1        0.0265
    115 H           5.0637   -4.0931    0.0000 H       1  UNL1        0.0265
    116 H           5.8608   -4.0962    0.0000 H       1  UNL1        0.0265
    117 H           5.0003   -2.6430    0.0000 H       1  UNL1        0.0265
    118 H           4.2033   -2.6399    0.0000 H       1  UNL1        0.0265
    119 H           3.3317   -4.0864    0.0000 H       1  UNL1        0.0265
    120 H           4.1287   -4.0895    0.0000 H       1  UNL1        0.0265
    121 H           3.2683   -2.6363    0.0000 H       1  UNL1        0.0263
    122 H           2.4712   -2.6332    0.0000 H       1  UNL1        0.0263
    123 H           1.6921   -3.0682    0.0000 H       1  UNL1        0.0230
    124 H           1.4619   -3.9143    0.0000 H       1  UNL1        0.0230
    125 H           2.3079   -4.1445    0.0000 H       1  UNL1        0.0230
@<TRIPOS>BOND
     1    22     1    1
     2     1    27    1
     3     2    27    2
     4     3     4    1
     5     3     7    1
     6     3     8    1
     7     3    14    1
     8     4     5    1
     9     4    10    1
    10     4    48    1
    11     5     6    1
    12     5    13    1
    13     5    49    1
    14     6     9    1
    15     6    11    1
    16     6    50    1
    17     7    12    1
    18     7    16    1
    19     7    51    1
    20     8    11    1
    21     8    52    1
    22     8    53    1
    23     9    15    1
    24     9    17    1
    25     9    19    1
    26    10    12    1
    27    10    54    1
    28    10    55    1
    29    11    56    1
    30    11    57    1
    31    12    58    1
    32    12    59    1
    33    13    18    1
    34    13    60    1
    35    13    61    1
    36    14    62    1
    37    14    63    1
    38    14    64    1
    39    15    18    2
    40    15    20    1
    41    16    23    1
    42    16    24    1
    43    16    65    1
    44    17    21    1
    45    17    66    1
    46    17    67    1
    47    18    68    1
    48    19    69    1
    49    19    70    1
    50    19    71    1
    51    20    22    1
    52    20    72    1
    53    20    73    1
    54    21    22    1
    55    21    74    1
    56    21    75    1
    57    22    76    1
    58    23    77    1
    59    23    78    1
    60    23    79    1
    61    24    25    2
    62    24    80    1
    63    26    25    1
    64    25    81    1
    65    26    28    1
    66    26    29    1
    67    26    82    1
    68    27    30    1
    69    28    31    1
    70    28    32    1
    71    28    83    1
    72    29    33    1
    73    29    84    1
    74    29    85    1
    75    30    34    1
    76    30    86    1
    77    30    87    1
    78    31    88    1
    79    31    92    1
    80    31    93    1
    81    32    89    1
    82    32    90    1
    83    32    91    1
    84    33    94    1
    85    33    95    1
    86    33    96    1
    87    34    35    1
    88    34    97    1
    89    34    98    1
    90    35    36    1
    91    35    99    1
    92    35   100    1
    93    36    37    1
    94    36   101    1
    95    36   102    1
    96    37    38    1
    97    37   103    1
    98    37   104    1
    99    38    39    1
   100    38   105    1
   101    38   106    1
   102    39    40    1
   103    39   107    1
   104    39   108    1
   105    40    41    1
   106    40   109    1
   107    40   110    1
   108    41    42    1
   109    41   111    1
   110    41   112    1
   111    42    43    1
   112    42   113    1
   113    42   114    1
   114    43    44    1
   115    43   115    1
   116    43   116    1
   117    44    45    1
   118    44   117    1
   119    44   118    1
   120    45    46    1
   121    45   119    1
   122    45   120    1
   123    46    47    1
   124    46   121    1
   125    46   122    1
   126    47   123    1
   127    47   124    1
   128    47   125    1
