@<TRIPOS>MOLECULE
IMPHY005452
 56 58 0 0 0
SMALL
GASTEIGER

@<TRIPOS>ATOM
      1 O           8.1301   -2.2052    0.0000 O.2     1  UNL1       -0.4542
      2 O          11.6602   -0.1810    0.0000 O.3     1  UNL1       -0.4912
      3 O           6.3817    0.8294    0.0000 O.3     1  UNL1       -0.5055
      4 O           8.1301    0.7948    0.0000 O.2     1  UNL1       -0.2863
      5 O           4.6000   -2.2293    0.0000 O.3     1  UNL1       -0.5062
      6 O          11.6602   -2.2293    0.0000 O.3     1  UNL1       -0.5032
      7 C           8.9961   -0.7052    0.0000 C.ar    1  UNL1        0.0719
      8 C           9.8901   -0.1705    0.0000 C.ar    1  UNL1        0.0160
      9 C           7.2641   -0.7052    0.0000 C.ar    1  UNL1        0.1064
     10 C           8.9961   -1.7052    0.0000 C.ar    1  UNL1        0.1432
     11 C           8.1301   -0.2052    0.0000 C.ar    1  UNL1        0.2041
     12 C           7.2641   -1.7052    0.0000 C.ar    1  UNL1        0.1463
     13 C           5.4641   -0.6844    0.0000 C.ar    1  UNL1        0.0400
     14 C           6.3701   -0.1705    0.0000 C.ar    1  UNL1        0.1381
     15 C           9.8785    0.8294    0.0000 C.3     1  UNL1       -0.0049
     16 C          10.7961   -0.6844    0.0000 C.ar    1  UNL1        0.1656
     17 C           9.8901   -2.2398    0.0000 C.ar    1  UNL1        0.0265
     18 C           6.3701   -2.2398    0.0000 C.ar    1  UNL1        0.0234
     19 C           5.4641   -1.7260    0.0000 C.ar    1  UNL1        0.1273
     20 C           4.6000   -0.1810    0.0000 C.3     1  UNL1       -0.0023
     21 C          10.7961   -1.7260    0.0000 C.ar    1  UNL1        0.1623
     22 C          10.7387    1.3394    0.0000 C.2     1  UNL1       -0.0808
     23 C           3.7320   -0.6777    0.0000 C.2     1  UNL1       -0.0807
     24 C          10.7271    2.3393    0.0000 C.2     1  UNL1       -0.0793
     25 C           2.8680   -0.1743    0.0000 C.2     1  UNL1       -0.0793
     26 C          11.5873    2.8493    0.0000 C.3     1  UNL1       -0.0440
     27 C           9.8554    2.8293    0.0000 C.3     1  UNL1       -0.0440
     28 C          12.5282   -0.6777    0.0000 C.3     1  UNL1        0.0790
     29 C           2.0000   -0.6710    0.0000 C.3     1  UNL1       -0.0440
     30 C           2.8718    0.8256    0.0000 C.3     1  UNL1       -0.0440
     31 H           9.6597    1.4095    0.0000 H       1  UNL1        0.0357
     32 H           9.2692    0.7147    0.0000 H       1  UNL1        0.0357
     33 H           9.8829   -2.8598    0.0000 H       1  UNL1        0.0692
     34 H           6.3773   -2.8598    0.0000 H       1  UNL1        0.0691
     35 H           5.0003    0.2924    0.0000 H       1  UNL1        0.0358
     36 H           4.2033    0.2955    0.0000 H       1  UNL1        0.0358
     37 H          11.2792    1.0356    0.0000 H       1  UNL1        0.0575
     38 H           3.7296   -1.2977    0.0000 H       1  UNL1        0.0575
     39 H           5.8484    1.1456    0.0000 H       1  UNL1        0.2922
     40 H           4.6024   -2.8493    0.0000 H       1  UNL1        0.2921
     41 H          11.6578   -2.8493    0.0000 H       1  UNL1        0.2923
     42 H          11.9035    2.3160    0.0000 H       1  UNL1        0.0274
     43 H          12.1206    3.1655    0.0000 H       1  UNL1        0.0274
     44 H          11.2711    3.3826    0.0000 H       1  UNL1        0.0274
     45 H          10.1592    3.3698    0.0000 H       1  UNL1        0.0274
     46 H           9.3149    3.1331    0.0000 H       1  UNL1        0.0274
     47 H           9.5516    2.2888    0.0000 H       1  UNL1        0.0274
     48 H          12.2203   -1.2158    0.0000 H       1  UNL1        0.0660
     49 H          13.0663   -0.9856    0.0000 H       1  UNL1        0.0660
     50 H          12.8361   -0.1396    0.0000 H       1  UNL1        0.0660
     51 H           1.6921   -0.1329    0.0000 H       1  UNL1        0.0274
     52 H           1.4619   -0.9789    0.0000 H       1  UNL1        0.0274
     53 H           2.3079   -1.2091    0.0000 H       1  UNL1        0.0274
     54 H           3.4918    0.8233    0.0000 H       1  UNL1        0.0274
     55 H           2.8742    1.4456    0.0000 H       1  UNL1        0.0274
     56 H           2.2518    0.8280    0.0000 H       1  UNL1        0.0274
@<TRIPOS>BOND
     1     1    10   ar
     2     1    12   ar
     3     2    16    1
     4     2    28    1
     5     3    14    1
     6     3    39    1
     7     4    11    2
     8     5    19    1
     9     5    40    1
    10     6    21    1
    11     6    41    1
    12     7     8   ar
    13     7    10   ar
    14     7    11   ar
    15     8    15    1
    16     8    16   ar
    17     9    11   ar
    18     9    12   ar
    19     9    14   ar
    20    10    17   ar
    21    12    18   ar
    22    13    14   ar
    23    13    19   ar
    24    13    20    1
    25    15    22    1
    26    15    31    1
    27    15    32    1
    28    16    21   ar
    29    17    21   ar
    30    17    33    1
    31    18    19   ar
    32    18    34    1
    33    20    23    1
    34    20    35    1
    35    20    36    1
    36    22    24    2
    37    22    37    1
    38    23    25    2
    39    23    38    1
    40    24    26    1
    41    24    27    1
    42    25    29    1
    43    25    30    1
    44    26    42    1
    45    26    43    1
    46    26    44    1
    47    27    45    1
    48    27    46    1
    49    27    47    1
    50    28    48    1
    51    28    49    1
    52    28    50    1
    53    29    51    1
    54    29    52    1
    55    29    53    1
    56    30    54    1
    57    30    55    1
    58    30    56    1
