@<TRIPOS>MOLECULE
IMPHY017336
 23 23 0 0 0
SMALL
GASTEIGER

@<TRIPOS>ATOM
      1 C           2.8660   -2.2500    0.0000 C.ar    1  UNL1        0.0259
      2 C           2.0000   -2.7500    0.0000 C.ar    1  UNL1       -0.0463
      3 C           3.7320   -2.7500    0.0000 C.ar    1  UNL1       -0.0463
      4 C           2.0000   -3.7500    0.0000 C.ar    1  UNL1       -0.0606
      5 C           3.7320   -3.7500    0.0000 C.ar    1  UNL1       -0.0606
      6 C           2.8660   -4.2500    0.0000 C.ar    1  UNL1       -0.0617
      7 C           2.8660   -1.2500    0.0000 C.1     1  UNL1       -0.0525
      8 C           3.7320    4.2500    0.0000 C.3     1  UNL1       -0.0459
      9 C           3.7320    3.2500    0.0000 C.2     1  UNL1       -0.0789
     10 C           2.8660    2.7500    0.0000 C.2     1  UNL1       -0.0148
     11 C           2.8660   -0.2500    0.0000 C.1     1  UNL1       -0.0092
     12 C           2.8660    1.7500    0.0000 C.1     1  UNL1       -0.0606
     13 C           2.8660    0.7500    0.0000 C.1     1  UNL1       -0.0098
     14 H           1.4631   -2.4400    0.0000 H       1  UNL1        0.0630
     15 H           4.2690   -2.4400    0.0000 H       1  UNL1        0.0630
     16 H           1.4631   -4.0600    0.0000 H       1  UNL1        0.0618
     17 H           4.2690   -4.0600    0.0000 H       1  UNL1        0.0618
     18 H           2.8660   -4.8700    0.0000 H       1  UNL1        0.0618
     19 H           4.3520    4.2500    0.0000 H       1  UNL1        0.0272
     20 H           3.7320    4.8700    0.0000 H       1  UNL1        0.0272
     21 H           3.1120    4.2500    0.0000 H       1  UNL1        0.0272
     22 H           4.2690    2.9400    0.0000 H       1  UNL1        0.0575
     23 H           2.3291    3.0600    0.0000 H       1  UNL1        0.0709
@<TRIPOS>BOND
     1     1     2   ar
     2     1     3   ar
     3     1     7    1
     4     2     4   ar
     5     2    14    1
     6     3     5   ar
     7     3    15    1
     8     4     6   ar
     9     4    16    1
    10     5     6   ar
    11     5    17    1
    12     6    18    1
    13     7    11    3
    14     8     9    1
    15     8    19    1
    16     8    20    1
    17     8    21    1
    18     9    10    2
    19     9    22    1
    20    10    12    1
    21    10    23    1
    22    11    13    1
    23    12    13    3
