@<TRIPOS>MOLECULE
IMPHY002617
 64 65 0 0 0
SMALL
GASTEIGER

@<TRIPOS>ATOM
      1 O           5.4646   -2.7396    0.0000 O.3     1  UNL1       -0.3565
      2 O           2.0000   -3.7396    0.0000 O.3     1  UNL1       -0.3917
      3 O          15.0981    3.8226    0.0000 O.3     1  UNL1       -0.3907
      4 C           4.5981   -2.2396    0.0000 C.3     1  UNL1        0.1224
      5 C           4.5981   -3.2396    0.0000 C.3     1  UNL1        0.1032
      6 C           3.7320   -1.7396    0.0000 C.3     1  UNL1        0.0029
      7 C           3.7320   -3.7396    0.0000 C.3     1  UNL1        0.0052
      8 C           2.8660   -2.2396    0.0000 C.3     1  UNL1       -0.0186
      9 C           2.8660   -3.2396    0.0000 C.3     1  UNL1        0.0585
     10 C           4.5981   -4.2396    0.0000 C.3     1  UNL1       -0.0326
     11 C           5.0981   -1.3735    0.0000 C.2     1  UNL1       -0.0491
     12 C           2.8660   -1.2396    0.0000 C.3     1  UNL1       -0.0567
     13 C           3.7320   -0.7396    0.0000 C.3     1  UNL1       -0.0567
     14 C           6.0981   -1.3735    0.0000 C.2     1  UNL1       -0.0600
     15 C           6.5981   -0.5075    0.0000 C.2     1  UNL1       -0.0507
     16 C           6.0981    0.3585    0.0000 C.3     1  UNL1       -0.0397
     17 C           7.5981   -0.5075    0.0000 C.2     1  UNL1       -0.0588
     18 C           8.0981    0.3585    0.0000 C.2     1  UNL1       -0.0613
     19 C           9.0981    0.3585    0.0000 C.2     1  UNL1       -0.0588
     20 C           9.5981    1.2245    0.0000 C.2     1  UNL1       -0.0504
     21 C           9.0981    2.0906    0.0000 C.3     1  UNL1       -0.0397
     22 C          10.5981    1.2245    0.0000 C.2     1  UNL1       -0.0588
     23 C          11.0981    2.0906    0.0000 C.2     1  UNL1       -0.0615
     24 C          12.0981    2.0906    0.0000 C.2     1  UNL1       -0.0617
     25 C          12.5981    2.9566    0.0000 C.2     1  UNL1       -0.0606
     26 C          13.5981    2.9566    0.0000 C.2     1  UNL1       -0.0476
     27 C          14.0981    3.8226    0.0000 C.3     1  UNL1        0.0653
     28 C          14.0981    2.0906    0.0000 C.3     1  UNL1       -0.0413
     29 H           3.3335   -4.2145    0.0000 H       1  UNL1        0.0319
     30 H           4.1306   -4.2145    0.0000 H       1  UNL1        0.0319
     31 H           2.6540   -1.6570    0.0000 H       1  UNL1        0.0296
     32 H           2.2554   -2.3472    0.0000 H       1  UNL1        0.0296
     33 H           2.8660   -3.8596    0.0000 H       1  UNL1        0.0594
     34 H           3.9781   -4.2396    0.0000 H       1  UNL1        0.0258
     35 H           4.5981   -4.8596    0.0000 H       1  UNL1        0.0258
     36 H           5.2181   -4.2396    0.0000 H       1  UNL1        0.0258
     37 H           4.7881   -0.8366    0.0000 H       1  UNL1        0.0602
     38 H           3.1760   -0.7026    0.0000 H       1  UNL1        0.0236
     39 H           4.3520   -0.7396    0.0000 H       1  UNL1        0.0236
     40 H           3.7320   -0.1196    0.0000 H       1  UNL1        0.0236
     41 H           2.3291   -0.9296    0.0000 H       1  UNL1        0.0236
     42 H           2.5560   -1.7765    0.0000 H       1  UNL1        0.0236
     43 H           3.1120   -0.7396    0.0000 H       1  UNL1        0.0236
     44 H           2.0000   -4.3596    0.0000 H       1  UNL1        0.2098
     45 H           6.4081   -1.9105    0.0000 H       1  UNL1        0.0618
     46 H           6.6350    0.6685    0.0000 H       1  UNL1        0.0278
     47 H           5.7881    0.8955    0.0000 H       1  UNL1        0.0278
     48 H           5.5611    0.0485    0.0000 H       1  UNL1        0.0278
     49 H           7.9081   -1.0444    0.0000 H       1  UNL1        0.0620
     50 H           7.7881    0.8955    0.0000 H       1  UNL1        0.0618
     51 H           9.4081   -0.1784    0.0000 H       1  UNL1        0.0620
     52 H           9.6350    2.4006    0.0000 H       1  UNL1        0.0278
     53 H           8.7881    2.6275    0.0000 H       1  UNL1        0.0278
     54 H           8.5611    1.7806    0.0000 H       1  UNL1        0.0278
     55 H          10.9081    0.6876    0.0000 H       1  UNL1        0.0620
     56 H          10.7881    2.6275    0.0000 H       1  UNL1        0.0618
     57 H          12.4081    1.5536    0.0000 H       1  UNL1        0.0618
     58 H          12.2881    3.4935    0.0000 H       1  UNL1        0.0618
     59 H          14.2057    4.4332    0.0000 H       1  UNL1        0.0604
     60 H          13.5155    4.0347    0.0000 H       1  UNL1        0.0604
     61 H          13.5611    1.7806    0.0000 H       1  UNL1        0.0275
     62 H          14.4081    1.5536    0.0000 H       1  UNL1        0.0275
     63 H          14.6350    2.4006    0.0000 H       1  UNL1        0.0275
     64 H          15.4081    4.3596    0.0000 H       1  UNL1        0.2098
@<TRIPOS>BOND
     1     1     4    1
     2     1     5    1
     3     9     2    1
     4     2    44    1
     5     3    27    1
     6     3    64    1
     7     4     5    1
     8     4     6    1
     9     4    11    1
    10     5     7    1
    11     5    10    1
    12     6     8    1
    13     6    12    1
    14     6    13    1
    15     7     9    1
    16     7    29    1
    17     7    30    1
    18     8     9    1
    19     8    31    1
    20     8    32    1
    21     9    33    1
    22    10    34    1
    23    10    35    1
    24    10    36    1
    25    11    14    2
    26    11    37    1
    27    12    38    1
    28    12    41    1
    29    12    42    1
    30    13    39    1
    31    13    40    1
    32    13    43    1
    33    14    15    1
    34    14    45    1
    35    15    16    1
    36    15    17    2
    37    16    46    1
    38    16    47    1
    39    16    48    1
    40    17    18    1
    41    17    49    1
    42    18    19    2
    43    18    50    1
    44    19    20    1
    45    19    51    1
    46    20    21    1
    47    20    22    2
    48    21    52    1
    49    21    53    1
    50    21    54    1
    51    22    23    1
    52    22    55    1
    53    23    24    2
    54    23    56    1
    55    24    25    1
    56    24    57    1
    57    25    26    2
    58    25    58    1
    59    26    27    1
    60    26    28    1
    61    27    59    1
    62    27    60    1
    63    28    61    1
    64    28    62    1
    65    28    63    1
