@<TRIPOS>MOLECULE
IMPHY017190
 18 17 0 0 0
SMALL
GASTEIGER

@<TRIPOS>ATOM
      1 O           2.8660   -0.7500    0.0000 O.2     1  UNL1       -0.2930
      2 C           4.5981    0.2500    0.0000 C.2     1  UNL1       -0.0588
      3 C           3.7320    0.7500    0.0000 C.2     1  UNL1       -0.0195
      4 C           5.4641    0.7500    0.0000 C.2     1  UNL1       -0.0658
      5 C           2.8660    0.2500    0.0000 C.2     1  UNL1        0.1530
      6 C           6.3301    0.2500    0.0000 C.2     1  UNL1       -0.0871
      7 C           2.0000    0.7500    0.0000 C.3     1  UNL1       -0.0020
      8 C           7.1962    0.7500    0.0000 C.3     1  UNL1       -0.0465
      9 H           3.7320    1.3700    0.0000 H       1  UNL1        0.0652
     10 H           4.5981   -0.3700    0.0000 H       1  UNL1        0.0619
     11 H           5.4641    1.3700    0.0000 H       1  UNL1        0.0614
     12 H           6.3301   -0.3700    0.0000 H       1  UNL1        0.0569
     13 H           2.3100    1.2869    0.0000 H       1  UNL1        0.0309
     14 H           1.4631    1.0600    0.0000 H       1  UNL1        0.0309
     15 H           1.6900    0.2131    0.0000 H       1  UNL1        0.0309
     16 H           7.5062    0.2131    0.0000 H       1  UNL1        0.0272
     17 H           7.7331    1.0600    0.0000 H       1  UNL1        0.0272
     18 H           6.8862    1.2869    0.0000 H       1  UNL1        0.0272
@<TRIPOS>BOND
     1     1     5    2
     2     2     3    2
     3     2     4    1
     4     2    10    1
     5     3     5    1
     6     3     9    1
     7     4     6    2
     8     4    11    1
     9     5     7    1
    10     6     8    1
    11     6    12    1
    12     7    13    1
    13     7    14    1
    14     7    15    1
    15     8    16    1
    16     8    17    1
    17     8    18    1
