@<TRIPOS>MOLECULE
IMPHY003789
 35 36 0 0 0
SMALL
GASTEIGER

@<TRIPOS>ATOM
      1 O           2.5836   -0.8241    0.0000 O.2     1  UNL1       -0.4665
      2 O           4.7785    0.0567    0.0000 O.2     1  UNL1       -0.2872
      3 C           4.3958   -1.0194    0.0000 C.3     1  UNL1        0.0271
      4 C           3.5298   -0.5194    0.0000 C.ar    1  UNL1        0.1198
      5 C           6.0689    0.0147    0.0000 C.3     1  UNL1       -0.0308
      6 C           5.3618    0.7218    0.0000 C.3     1  UNL1       -0.0282
      7 C           3.5298    0.4806    0.0000 C.ar    1  UNL1        0.0657
      8 C           5.2029   -1.4853    0.0000 C.2     1  UNL1       -0.0692
      9 C           6.0689   -0.9853    0.0000 C.2     1  UNL1       -0.0843
     10 C           5.6206    1.6877    0.0000 C.2     1  UNL1       -0.0687
     11 C           2.5836    0.7853    0.0000 C.ar    1  UNL1       -0.0016
     12 C           4.3958    0.9806    0.0000 C.2     1  UNL1        0.1896
     13 C           4.6547    1.9465    0.0000 C.2     1  UNL1       -0.0152
     14 C           5.1419   -2.4835    0.0000 C.3     1  UNL1       -0.0434
     15 C           2.0000   -0.0194    0.0000 C.ar    1  UNL1        0.0957
     16 C           6.4866    2.1877    0.0000 C.3     1  UNL1       -0.0434
     17 C           2.2729    1.7358    0.0000 C.3     1  UNL1       -0.0360
     18 H           4.9328   -0.7094    0.0000 H       1  UNL1        0.0389
     19 H           4.0858   -1.5563    0.0000 H       1  UNL1        0.0389
     20 H           6.6678   -0.1458    0.0000 H       1  UNL1        0.0310
     21 H           6.3789    0.5516    0.0000 H       1  UNL1        0.0310
     22 H           4.7999    0.9838    0.0000 H       1  UNL1        0.0313
     23 H           5.0062    0.2139    0.0000 H       1  UNL1        0.0313
     24 H           6.6058   -1.2953    0.0000 H       1  UNL1        0.0572
     25 H           4.3447    2.4835    0.0000 H       1  UNL1        0.0655
     26 H           4.5230   -2.4456    0.0000 H       1  UNL1        0.0274
     27 H           5.1041   -3.1023    0.0000 H       1  UNL1        0.0274
     28 H           5.7607   -2.5213    0.0000 H       1  UNL1        0.0274
     29 H           1.3800   -0.0194    0.0000 H       1  UNL1        0.1032
     30 H           6.7966    1.6508    0.0000 H       1  UNL1        0.0274
     31 H           7.0236    2.4977    0.0000 H       1  UNL1        0.0274
     32 H           6.1766    2.7246    0.0000 H       1  UNL1        0.0274
     33 H           2.8623    1.9285    0.0000 H       1  UNL1        0.0279
     34 H           2.0803    2.3252    0.0000 H       1  UNL1        0.0279
     35 H           1.6836    1.5432    0.0000 H       1  UNL1        0.0279
@<TRIPOS>BOND
     1     1     4   ar
     2     1    15   ar
     3     2    12    2
     4     3     4    1
     5     3     8    1
     6     3    18    1
     7     3    19    1
     8     4     7   ar
     9     5     6    1
    10     5     9    1
    11     5    20    1
    12     5    21    1
    13     6    10    1
    14     6    22    1
    15     6    23    1
    16     7    11   ar
    17     7    12    1
    18     8     9    2
    19     8    14    1
    20     9    24    1
    21    10    13    2
    22    10    16    1
    23    11    15   ar
    24    11    17    1
    25    12    13    1
    26    13    25    1
    27    14    26    1
    28    14    27    1
    29    14    28    1
    30    15    29    1
    31    16    30    1
    32    16    31    1
    33    16    32    1
    34    17    33    1
    35    17    34    1
    36    17    35    1
