@<TRIPOS>MOLECULE
IMPHY017966
 11 11 0 0 0
SMALL
GASTEIGER

@<TRIPOS>ATOM
      1 O           2.8660    2.2500    0.0000 O.2     1  UNL1       -0.2883
      2 C           4.5981    0.2500    0.0000 C.3     1  UNL1        0.0117
      3 C           3.7321    0.7500    0.0000 C.3     1  UNL1        0.0692
      4 C           2.8660    0.2500    0.0000 C.3     1  UNL1        0.0288
      5 C           4.5981   -0.7500    0.0000 C.3     1  UNL1        0.0221
      6 C           3.7321   -1.2500    0.0000 C.2     1  UNL1       -0.0482
      7 C           2.8660   -0.7500    0.0000 C.2     1  UNL1       -0.0345
      8 C           5.4641    0.7500    0.0000 C.3     1  UNL1        0.0008
      9 C           2.0000    0.7500    0.0000 C.3     1  UNL1        0.0051
     10 C           3.7321    1.7500    0.0000 C.2     1  UNL1        0.2073
     11 C           3.7321   -2.2500    0.0000 C.3     1  UNL1        0.0260
@<TRIPOS>BOND
     1     1    10    2
     2     2     3    1
     3     2     5    1
     4     2     8    1
     5     3     4    1
     6     3    10    1
     7     4     7    1
     8     4     9    1
     9     5     6    1
    10     6     7    2
    11     6    11    1
