@<TRIPOS>MOLECULE
IMPHY004744
 59 62 0 0 0
SMALL
GASTEIGER

@<TRIPOS>ATOM
      1 O           4.5981   -3.5287    0.0000 O.3     1  UNL1       -0.3315
      2 O           6.3301   -3.5287    0.0000 O.3     1  UNL1       -0.3345
      3 O           4.5981   -6.5287    0.0000 O.3     1  UNL1       -0.3864
      4 O           6.3301   -5.5287    0.0000 O.3     1  UNL1       -0.3841
      5 O           2.8660   -5.5287    0.0000 O.3     1  UNL1       -0.3860
      6 O           2.8660   -2.5287    0.0000 O.3     1  UNL1       -0.4788
      7 O           2.0000   -4.0287    0.0000 O.2     1  UNL1       -0.2480
      8 O           7.1962   -1.0287    0.0000 O.3     1  UNL1       -0.4238
      9 O           8.0622   -2.5287    0.0000 O.2     1  UNL1       -0.2475
     10 O           8.9704    2.0233    0.0000 O.2     1  UNL1       -0.4544
     11 O          10.7359   -1.0014    0.0000 O.3     1  UNL1       -0.5058
     12 O          11.5742    0.5333    0.0000 O.2     1  UNL1       -0.2869
     13 O           9.8190    6.5266    0.0000 O.3     1  UNL1       -0.5068
     14 C           4.5981   -5.5287    0.0000 C.3     1  UNL1        0.1145
     15 C           5.4641   -5.0287    0.0000 C.3     1  UNL1        0.1342
     16 C           3.7320   -5.0287    0.0000 C.3     1  UNL1        0.1201
     17 C           5.4641   -4.0287    0.0000 C.3     1  UNL1        0.1894
     18 C           3.7320   -4.0287    0.0000 C.3     1  UNL1        0.1859
     19 C           2.8660   -3.5287    0.0000 C.2     1  UNL1        0.3367
     20 C           6.3301   -2.5287    0.0000 C.3     1  UNL1        0.1557
     21 C           5.4641   -2.0287    0.0000 C.3     1  UNL1       -0.0281
     22 C           7.1962   -2.0287    0.0000 C.2     1  UNL1        0.3414
     23 C           8.0622   -0.5287    0.0000 C.ar    1  UNL1        0.1387
     24 C           8.9742    1.0233    0.0000 C.ar    1  UNL1        0.1463
     25 C           9.8422    0.5266    0.0000 C.ar    1  UNL1        0.1055
     26 C           8.0662    0.5130    0.0000 C.ar    1  UNL1        0.0241
     27 C           8.9663   -1.0460    0.0000 C.ar    1  UNL1        0.0232
     28 C           9.8622   -0.5148    0.0000 C.ar    1  UNL1        0.1347
     29 C           9.8345    2.5266    0.0000 C.ar    1  UNL1        0.1392
     30 C          10.7063    1.0300    0.0000 C.ar    1  UNL1        0.1966
     31 C          10.7024    2.0300    0.0000 C.ar    1  UNL1        0.0288
     32 C           9.8306    3.5266    0.0000 C.ar    1  UNL1        0.0176
     33 C          10.6947    4.0300    0.0000 C.ar    1  UNL1       -0.0476
     34 C           8.9627    4.0233    0.0000 C.ar    1  UNL1       -0.0476
     35 C          10.6909    5.0300    0.0000 C.ar    1  UNL1       -0.0195
     36 C           8.9588    5.0233    0.0000 C.ar    1  UNL1       -0.0195
     37 C           9.8229    5.5266    0.0000 C.ar    1  UNL1        0.1169
     38 H           5.1350   -5.8387    0.0000 H       1  UNL1        0.0648
     39 H           6.0010   -4.7187    0.0000 H       1  UNL1        0.0671
     40 H           3.7320   -5.6487    0.0000 H       1  UNL1        0.0652
     41 H           5.4641   -3.4087    0.0000 H       1  UNL1        0.0938
     42 H           3.7320   -3.4087    0.0000 H       1  UNL1        0.0741
     43 H           5.1350   -6.8387    0.0000 H       1  UNL1        0.2100
     44 H           6.8671   -5.2187    0.0000 H       1  UNL1        0.2101
     45 H           2.8660   -6.1487    0.0000 H       1  UNL1        0.2100
     46 H           6.8671   -2.8387    0.0000 H       1  UNL1        0.0711
     47 H           5.7741   -1.4917    0.0000 H       1  UNL1        0.0260
     48 H           4.9272   -1.7187    0.0000 H       1  UNL1        0.0260
     49 H           5.1541   -2.5656    0.0000 H       1  UNL1        0.0260
     50 H           2.3291   -2.2187    0.0000 H       1  UNL1        0.2951
     51 H           7.5317    0.8271    0.0000 H       1  UNL1        0.0691
     52 H           8.9710   -1.6660    0.0000 H       1  UNL1        0.0691
     53 H          11.2382    2.3420    0.0000 H       1  UNL1        0.0693
     54 H          11.2328    3.7220    0.0000 H       1  UNL1        0.0626
     55 H           8.4269    3.7112    0.0000 H       1  UNL1        0.0626
     56 H          10.7454   -1.6213    0.0000 H       1  UNL1        0.2922
     57 H          11.2266    5.3420    0.0000 H       1  UNL1        0.0654
     58 H           8.4207    5.3312    0.0000 H       1  UNL1        0.0654
     59 H          10.3548    6.8387    0.0000 H       1  UNL1        0.2921
@<TRIPOS>BOND
     1     1    17    1
     2     1    18    1
     3     2    17    1
     4     2    20    1
     5     3    14    1
     6     3    43    1
     7     4    15    1
     8     4    44    1
     9     5    16    1
    10     5    45    1
    11     6    19    1
    12     6    50    1
    13     7    19    2
    14     8    22    1
    15     8    23    1
    16     9    22    2
    17    10    24   ar
    18    10    29   ar
    19    11    28    1
    20    11    56    1
    21    12    30    2
    22    13    37    1
    23    13    59    1
    24    14    15    1
    25    14    16    1
    26    14    38    1
    27    15    17    1
    28    15    39    1
    29    16    18    1
    30    16    40    1
    31    17    41    1
    32    18    19    1
    33    18    42    1
    34    20    21    1
    35    20    22    1
    36    20    46    1
    37    21    47    1
    38    21    48    1
    39    21    49    1
    40    23    26   ar
    41    23    27   ar
    42    24    25   ar
    43    24    26   ar
    44    25    28   ar
    45    25    30   ar
    46    26    51    1
    47    27    28   ar
    48    27    52    1
    49    29    31   ar
    50    29    32    1
    51    30    31   ar
    52    31    53    1
    53    32    33   ar
    54    32    34   ar
    55    33    35   ar
    56    33    54    1
    57    34    36   ar
    58    34    55    1
    59    35    37   ar
    60    35    57    1
    61    36    37   ar
    62    36    58    1
