@<TRIPOS>MOLECULE
IMPHY007567
 178 187 0 0 0
SMALL
GASTEIGER

@<TRIPOS>ATOM
      1 O           6.8671   -2.8147    0.0000 O.3     1  UNL1       -0.3449
      2 O           6.8270    7.5787    0.0000 O.3     1  UNL1       -0.3912
      3 O           8.6209    6.4648    0.0000 O.3     1  UNL1       -0.4318
      4 O           9.5042    4.9749    0.0000 O.2     1  UNL1       -0.2501
      5 O           5.1350   -2.8147    0.0000 O.3     1  UNL1       -0.3405
      6 O           6.8671   -4.8147    0.0000 O.3     1  UNL1       -0.3378
      7 O           9.4695    7.9747    0.0000 O.3     1  UNL1       -0.3368
      8 O           5.1350   -5.8147    0.0000 O.3     1  UNL1       -0.3864
      9 O          10.3644    5.4849    0.0000 O.3     1  UNL1       -0.3366
     10 O           3.4030   -4.8147    0.0000 O.3     1  UNL1       -0.3865
     11 O          12.0847    6.5048    0.0000 O.3     1  UNL1       -0.3864
     12 O           6.0010   -6.3147    0.0000 O.3     1  UNL1       -0.3405
     13 O           2.5369   -3.3147    0.0000 O.3     1  UNL1       -0.3924
     14 O          12.0616    8.5047    0.0000 O.3     1  UNL1       -0.3869
     15 O          12.0963    5.5049    0.0000 O.3     1  UNL1       -0.3431
     16 O           8.5991   -5.8147    0.0000 O.3     1  UNL1       -0.3841
     17 O           8.5991   -7.8147    0.0000 O.3     1  UNL1       -0.3864
     18 O           6.8671   -8.8147    0.0000 O.3     1  UNL1       -0.3865
     19 O          10.3875    3.4850    0.0000 O.3     1  UNL1       -0.3841
     20 O          12.1310    2.5051    0.0000 O.3     1  UNL1       -0.3864
     21 O          13.8514    3.5251    0.0000 O.3     1  UNL1       -0.3402
     22 O           5.1350   -8.8147    0.0000 O.3     1  UNL1       -0.3924
     23 O          14.7000    5.0350    0.0000 O.3     1  UNL1       -0.3461
     24 O          15.5949    2.5452    0.0000 O.3     1  UNL1       -0.3841
     25 O          17.3152    3.5651    0.0000 O.3     1  UNL1       -0.3864
     26 O          17.2921    5.5650    0.0000 O.3     1  UNL1       -0.3869
     27 C           7.7681    1.8856    0.0000 C.3     1  UNL1       -0.0194
     28 C           6.9040    1.3822    0.0000 C.3     1  UNL1       -0.0257
     29 C           6.8920    0.3407    0.0000 C.3     1  UNL1       -0.0250
     30 C           7.7643    2.8856    0.0000 C.3     1  UNL1       -0.0051
     31 C           7.7920   -0.1836    0.0000 C.3     1  UNL1       -0.0278
     32 C           8.6801    1.3822    0.0000 C.3     1  UNL1       -0.0463
     33 C           8.6921    0.3407    0.0000 C.3     1  UNL1       -0.0486
     34 C           7.8046   -1.2685    0.0000 C.3     1  UNL1       -0.0052
     35 C           6.8963    3.3822    0.0000 C.2     1  UNL1       -0.0629
     36 C           6.8762    4.4236    0.0000 C.3     1  UNL1       -0.0030
     37 C           6.0361    1.8789    0.0000 C.3     1  UNL1       -0.0306
     38 C           5.9421   -0.1836    0.0000 C.3     1  UNL1       -0.0447
     39 C           8.6723    3.3959    0.0000 C.3     1  UNL1       -0.0424
     40 C           7.7722    4.9549    0.0000 C.3     1  UNL1        0.0767
     41 C           8.7522    2.0630    0.0000 C.3     1  UNL1       -0.0585
     42 C           6.8671   -1.8147    0.0000 C.3     1  UNL1        0.0672
     43 C           8.6763    4.4375    0.0000 C.3     1  UNL1       -0.0358
     44 C           6.0279    0.8440    0.0000 C.3     1  UNL1       -0.0590
     45 C           6.0322    2.8789    0.0000 C.2     1  UNL1       -0.0836
     46 C           5.9295   -1.2685    0.0000 C.3     1  UNL1       -0.0255
     47 C           8.7497    2.7157    0.0000 C.3     1  UNL1       -0.0553
     48 C           5.9223    4.9406    0.0000 C.3     1  UNL1       -0.0379
     49 C           7.7764    6.0399    0.0000 C.3     1  UNL1       -0.0100
     50 C           5.9014    6.0254    0.0000 C.3     1  UNL1       -0.0083
     51 C           8.8046   -1.2608    0.0000 C.3     1  UNL1       -0.0572
     52 C           8.3113   -2.1307    0.0000 C.3     1  UNL1       -0.0572
     53 C           6.8347    6.5787    0.0000 C.3     1  UNL1        0.0614
     54 C           8.6324    5.4648    0.0000 C.2     1  UNL1        0.3162
     55 C           5.3881    6.8836    0.0000 C.3     1  UNL1       -0.0574
     56 C           4.9015    6.0100    0.0000 C.3     1  UNL1       -0.0574
     57 C           6.0010   -3.3147    0.0000 C.3     1  UNL1        0.1886
     58 C           6.0010   -4.3147    0.0000 C.3     1  UNL1        0.1406
     59 C           9.4810    6.9748    0.0000 C.3     1  UNL1        0.2338
     60 C           5.1350   -4.8147    0.0000 C.3     1  UNL1        0.1144
     61 C           4.2690   -3.3147    0.0000 C.3     1  UNL1        0.1130
     62 C           4.2690   -4.3147    0.0000 C.3     1  UNL1        0.1119
     63 C          10.3528    6.4848    0.0000 C.3     1  UNL1        0.1520
     64 C          11.2130    6.9948    0.0000 C.3     1  UNL1        0.1152
     65 C           3.4030   -2.8147    0.0000 C.3     1  UNL1        0.0730
     66 C          10.3297    8.4847    0.0000 C.3     1  UNL1        0.0802
     67 C           6.8671   -5.8147    0.0000 C.3     1  UNL1        0.1885
     68 C          11.2014    7.9947    0.0000 C.3     1  UNL1        0.1070
     69 C           7.7331   -6.3147    0.0000 C.3     1  UNL1        0.1341
     70 C          11.2361    4.9949    0.0000 C.3     1  UNL1        0.1885
     71 C           7.7331   -7.3147    0.0000 C.3     1  UNL1        0.1141
     72 C           6.0010   -7.3147    0.0000 C.3     1  UNL1        0.1130
     73 C           6.8671   -7.8147    0.0000 C.3     1  UNL1        0.1119
     74 C          11.2477    3.9950    0.0000 C.3     1  UNL1        0.1341
     75 C          12.1194    3.5050    0.0000 C.3     1  UNL1        0.1143
     76 C          12.9681    5.0150    0.0000 C.3     1  UNL1        0.0877
     77 C           5.1350   -7.8147    0.0000 C.3     1  UNL1        0.0730
     78 C          12.9796    4.0150    0.0000 C.3     1  UNL1        0.1160
     79 C          13.8282    5.5249    0.0000 C.3     1  UNL1       -0.0361
     80 C          14.7115    4.0350    0.0000 C.3     1  UNL1        0.1880
     81 C          15.5833    3.5451    0.0000 C.3     1  UNL1        0.1341
     82 C          16.4435    4.0551    0.0000 C.3     1  UNL1        0.1137
     83 C          15.5602    5.5450    0.0000 C.3     1  UNL1        0.0792
     84 C          16.4319    5.0550    0.0000 C.3     1  UNL1        0.1069
     85 H           7.6385    0.9544    0.0000 H       1  UNL1        0.0315
     86 H           8.5314   -0.6029    0.0000 H       1  UNL1        0.0312
     87 H           9.2921    1.2832    0.0000 H       1  UNL1        0.0271
     88 H           8.8824    1.9683    0.0000 H       1  UNL1        0.0271
     89 H           8.9079   -0.2406    0.0000 H       1  UNL1        0.0268
     90 H           9.3017    0.4538    0.0000 H       1  UNL1        0.0268
     91 H           6.1502    3.9817    0.0000 H       1  UNL1        0.0357
     92 H           5.4251    1.9842    0.0000 H       1  UNL1        0.0310
     93 H           5.8263    1.2955    0.0000 H       1  UNL1        0.0310
     94 H           5.7398    0.4024    0.0000 H       1  UNL1        0.0271
     95 H           5.3300   -0.2826    0.0000 H       1  UNL1        0.0271
     96 H           8.8791    2.8114    0.0000 H       1  UNL1        0.0274
     97 H           9.2836    3.4996    0.0000 H       1  UNL1        0.0274
     98 H           8.8623    1.4528    0.0000 H       1  UNL1        0.0235
     99 H           9.3624    2.1730    0.0000 H       1  UNL1        0.0235
    100 H           8.6422    2.6732    0.0000 H       1  UNL1        0.0235
    101 H           7.4046   -2.1236    0.0000 H       1  UNL1        0.0602
    102 H           9.2868    4.3291    0.0000 H       1  UNL1        0.0276
    103 H           8.8876    5.0204    0.0000 H       1  UNL1        0.0276
    104 H           6.3400    1.3797    0.0000 H       1  UNL1        0.0235
    105 H           5.4922    1.1561    0.0000 H       1  UNL1        0.0235
    106 H           5.7158    0.3083    0.0000 H       1  UNL1        0.0235
    107 H           5.4941    3.1868    0.0000 H       1  UNL1        0.0572
    108 H           5.3199   -1.1554    0.0000 H       1  UNL1        0.0290
    109 H           5.7137   -1.8498    0.0000 H       1  UNL1        0.0290
    110 H           8.6444    2.1047    0.0000 H       1  UNL1        0.0238
    111 H           9.3607    2.6104    0.0000 H       1  UNL1        0.0238
    112 H           8.8550    3.3267    0.0000 H       1  UNL1        0.0238
    113 H           5.3095    5.0349    0.0000 H       1  UNL1        0.0277
    114 H           5.7246    4.3530    0.0000 H       1  UNL1        0.0277
    115 H           8.3869    5.9314    0.0000 H       1  UNL1        0.0301
    116 H           7.9877    6.6227    0.0000 H       1  UNL1        0.0301
    117 H           8.8094   -1.8808    0.0000 H       1  UNL1        0.0236
    118 H           9.4246   -1.2561    0.0000 H       1  UNL1        0.0236
    119 H           8.7998   -0.6409    0.0000 H       1  UNL1        0.0236
    120 H           7.7767   -2.4448    0.0000 H       1  UNL1        0.0236
    121 H           8.6254   -2.6652    0.0000 H       1  UNL1        0.0236
    122 H           8.8458   -1.8166    0.0000 H       1  UNL1        0.0236
    123 H           7.3698    6.8918    0.0000 H       1  UNL1        0.0599
    124 H           5.9202    7.2018    0.0000 H       1  UNL1        0.0236
    125 H           5.0699    7.4157    0.0000 H       1  UNL1        0.0236
    126 H           4.8920    6.6299    0.0000 H       1  UNL1        0.0236
    127 H           4.2816    6.0004    0.0000 H       1  UNL1        0.0236
    128 H           4.9111    5.3900    0.0000 H       1  UNL1        0.0236
    129 H           4.8560    6.5654    0.0000 H       1  UNL1        0.0236
    130 H           6.5380   -3.6247    0.0000 H       1  UNL1        0.0938
    131 H           7.3615    7.8928    0.0000 H       1  UNL1        0.2098
    132 H           6.0010   -4.9347    0.0000 H       1  UNL1        0.0675
    133 H           9.4882    6.3548    0.0000 H       1  UNL1        0.1085
    134 H           4.5981   -5.1247    0.0000 H       1  UNL1        0.0648
    135 H           4.2690   -2.6947    0.0000 H       1  UNL1        0.0647
    136 H           3.7320   -4.0047    0.0000 H       1  UNL1        0.0647
    137 H          10.8933    6.1810    0.0000 H       1  UNL1        0.0687
    138 H          11.7463    7.3110    0.0000 H       1  UNL1        0.0648
    139 H           3.8015   -2.3397    0.0000 H       1  UNL1        0.0584
    140 H           3.0044   -2.3397    0.0000 H       1  UNL1        0.0584
    141 H          10.7227    8.9642    0.0000 H       1  UNL1        0.0588
    142 H           9.9257    8.9550    0.0000 H       1  UNL1        0.0588
    143 H           7.4040   -5.5047    0.0000 H       1  UNL1        0.0938
    144 H          11.1943    8.6147    0.0000 H       1  UNL1        0.0643
    145 H           4.5981   -6.1247    0.0000 H       1  UNL1        0.2100
    146 H           3.4030   -5.4347    0.0000 H       1  UNL1        0.2100
    147 H           8.2700   -6.6247    0.0000 H       1  UNL1        0.0671
    148 H          11.2289    5.6149    0.0000 H       1  UNL1        0.0938
    149 H          12.6181    6.8210    0.0000 H       1  UNL1        0.2100
    150 H           2.0000   -3.0047    0.0000 H       1  UNL1        0.2095
    151 H           7.7331   -7.9347    0.0000 H       1  UNL1        0.0648
    152 H          12.0544    9.1247    0.0000 H       1  UNL1        0.2100
    153 H           5.4641   -7.0047    0.0000 H       1  UNL1        0.0647
    154 H           6.3301   -8.1247    0.0000 H       1  UNL1        0.0647
    155 H          10.7072    4.2988    0.0000 H       1  UNL1        0.0671
    156 H           8.5991   -5.1947    0.0000 H       1  UNL1        0.2101
    157 H          11.5861    3.1888    0.0000 H       1  UNL1        0.0648
    158 H          12.9609    5.6349    0.0000 H       1  UNL1        0.0621
    159 H           4.9230   -7.2320    0.0000 H       1  UNL1        0.0584
    160 H           4.5244   -7.9223    0.0000 H       1  UNL1        0.0584
    161 H          13.5129    4.3312    0.0000 H       1  UNL1        0.0650
    162 H           9.1360   -7.5047    0.0000 H       1  UNL1        0.2100
    163 H           7.4040   -9.1247    0.0000 H       1  UNL1        0.2100
    164 H          10.3947    2.8650    0.0000 H       1  UNL1        0.2101
    165 H          14.1444    4.9916    0.0000 H       1  UNL1        0.0255
    166 H          14.3616    5.8411    0.0000 H       1  UNL1        0.0255
    167 H          13.5120    6.0582    0.0000 H       1  UNL1        0.0255
    168 H          12.6715    2.2013    0.0000 H       1  UNL1        0.2100
    169 H           5.6720   -9.1247    0.0000 H       1  UNL1        0.2095
    170 H          14.7187    3.4151    0.0000 H       1  UNL1        0.0937
    171 H          16.1238    3.2413    0.0000 H       1  UNL1        0.0671
    172 H          16.9768    4.3713    0.0000 H       1  UNL1        0.0647
    173 H          15.9532    6.0245    0.0000 H       1  UNL1        0.0587
    174 H          15.1562    6.0153    0.0000 H       1  UNL1        0.0587
    175 H          16.4248    5.6750    0.0000 H       1  UNL1        0.0643
    176 H          16.1353    2.2414    0.0000 H       1  UNL1        0.2101
    177 H          17.8485    3.8813    0.0000 H       1  UNL1        0.2100
    178 H          17.2849    6.1849    0.0000 H       1  UNL1        0.2100
@<TRIPOS>BOND
     1    42     1    1
     2    57     1    1
     3    53     2    1
     4     2   131    1
     5     3    54    1
     6    59     3    1
     7     4    54    2
     8     5    57    1
     9     5    61    1
    10    58     6    1
    11    67     6    1
    12     7    59    1
    13     7    66    1
    14    60     8    1
    15     8   145    1
    16    63     9    1
    17    70     9    1
    18    62    10    1
    19    10   146    1
    20    64    11    1
    21    11   149    1
    22    12    67    1
    23    12    72    1
    24    13    65    1
    25    13   150    1
    26    68    14    1
    27    14   152    1
    28    15    70    1
    29    15    76    1
    30    69    16    1
    31    16   156    1
    32    71    17    1
    33    17   162    1
    34    73    18    1
    35    18   163    1
    36    74    19    1
    37    19   164    1
    38    75    20    1
    39    20   168    1
    40    78    21    1
    41    80    21    1
    42    22    77    1
    43    22   169    1
    44    23    80    1
    45    23    83    1
    46    81    24    1
    47    24   176    1
    48    82    25    1
    49    25   177    1
    50    84    26    1
    51    26   178    1
    52    27    28    1
    53    27    30    1
    54    27    32    1
    55    27    41    1
    56    28    29    1
    57    28    37    1
    58    28    85    1
    59    29    31    1
    60    29    38    1
    61    29    44    1
    62    30    35    1
    63    30    39    1
    64    30    47    1
    65    31    33    1
    66    31    34    1
    67    31    86    1
    68    32    33    1
    69    32    87    1
    70    32    88    1
    71    33    89    1
    72    33    90    1
    73    34    42    1
    74    34    51    1
    75    34    52    1
    76    35    36    1
    77    35    45    2
    78    36    40    1
    79    36    48    1
    80    36    91    1
    81    37    45    1
    82    37    92    1
    83    37    93    1
    84    38    46    1
    85    38    94    1
    86    38    95    1
    87    39    43    1
    88    39    96    1
    89    39    97    1
    90    40    43    1
    91    40    49    1
    92    40    54    1
    93    41    98    1
    94    41    99    1
    95    41   100    1
    96    42    46    1
    97    42   101    1
    98    43   102    1
    99    43   103    1
   100    44   104    1
   101    44   105    1
   102    44   106    1
   103    45   107    1
   104    46   108    1
   105    46   109    1
   106    47   110    1
   107    47   111    1
   108    47   112    1
   109    48    50    1
   110    48   113    1
   111    48   114    1
   112    49    53    1
   113    49   115    1
   114    49   116    1
   115    50    53    1
   116    50    55    1
   117    50    56    1
   118    51   117    1
   119    51   118    1
   120    51   119    1
   121    52   120    1
   122    52   121    1
   123    52   122    1
   124    53   123    1
   125    55   124    1
   126    55   125    1
   127    55   129    1
   128    56   126    1
   129    56   127    1
   130    56   128    1
   131    57    58    1
   132    57   130    1
   133    58    60    1
   134    58   132    1
   135    59    63    1
   136    59   133    1
   137    60    62    1
   138    60   134    1
   139    61    62    1
   140    61    65    1
   141    61   135    1
   142    62   136    1
   143    63    64    1
   144    63   137    1
   145    64    68    1
   146    64   138    1
   147    65   139    1
   148    65   140    1
   149    66    68    1
   150    66   141    1
   151    66   142    1
   152    67    69    1
   153    67   143    1
   154    68   144    1
   155    69    71    1
   156    69   147    1
   157    70    74    1
   158    70   148    1
   159    71    73    1
   160    71   151    1
   161    72    73    1
   162    72    77    1
   163    72   153    1
   164    73   154    1
   165    74    75    1
   166    74   155    1
   167    75    78    1
   168    75   157    1
   169    76    78    1
   170    76    79    1
   171    76   158    1
   172    77   159    1
   173    77   160    1
   174    78   161    1
   175    79   165    1
   176    79   166    1
   177    79   167    1
   178    80    81    1
   179    80   170    1
   180    81    82    1
   181    81   171    1
   182    82    84    1
   183    82   172    1
   184    83    84    1
   185    83   173    1
   186    83   174    1
   187    84   175    1
