@<TRIPOS>MOLECULE
IMPHY012282
 59 62 0 0 0
SMALL
GASTEIGER

@<TRIPOS>ATOM
      1 N          10.1642    2.2722    0.0000 N.3     1  UNL1       -0.3272
      2 N           2.5357   -2.2416    0.0000 N.3     1  UNL1       -0.3270
      3 C           7.9288    0.8108    0.0000 C.3     1  UNL1       -0.0247
      4 C           7.9288   -0.1892    0.0000 C.3     1  UNL1       -0.0319
      5 C           7.0628   -0.6892    0.0000 C.3     1  UNL1       -0.0307
      6 C           6.1968   -0.1892    0.0000 C.3     1  UNL1       -0.0285
      7 C           8.8750    1.1155    0.0000 C.3     1  UNL1       -0.0204
      8 C           5.2868   -0.6961    0.0000 C.3     1  UNL1       -0.0079
      9 C           7.0628    1.3108    0.0000 C.3     1  UNL1       -0.0468
     10 C           8.8750   -0.4940    0.0000 C.3     1  UNL1       -0.0491
     11 C           6.1968    0.8108    0.0000 C.3     1  UNL1       -0.0486
     12 C           9.4586    0.3108    0.0000 C.3     1  UNL1       -0.0480
     13 C           7.0789   -1.7307    0.0000 C.3     1  UNL1       -0.0311
     14 C           7.9288    1.8108    0.0000 C.3     1  UNL1       -0.0590
     15 C           5.2787   -1.7377    0.0000 C.2     1  UNL1       -0.0658
     16 C           4.3599   -0.1320    0.0000 C.3     1  UNL1       -0.0422
     17 C           9.1857    2.0660    0.0000 C.3     1  UNL1        0.0053
     18 C           6.1808   -2.2585    0.0000 C.2     1  UNL1       -0.0839
     19 C           5.2945    0.3039    0.0000 C.3     1  UNL1       -0.0556
     20 C           4.3433   -2.2874    0.0000 C.3     1  UNL1       -0.0160
     21 C           3.4120   -0.6599    0.0000 C.3     1  UNL1       -0.0367
     22 C           3.4037   -1.7449    0.0000 C.3     1  UNL1        0.0086
     23 C           8.5179    2.8103    0.0000 C.3     1  UNL1       -0.0496
     24 H           8.0188   -1.0345    0.0000 H       1  UNL1        0.0309
     25 H           7.8022   -1.1086    0.0000 H       1  UNL1        0.0309
     26 H           6.9329    0.2358    0.0000 H       1  UNL1        0.0312
     27 H           9.7148    1.2474    0.0000 H       1  UNL1        0.0321
     28 H           7.4613    1.7857    0.0000 H       1  UNL1        0.0271
     29 H           6.6643    1.7857    0.0000 H       1  UNL1        0.0271
     30 H           8.6240   -1.0609    0.0000 H       1  UNL1        0.0268
     31 H           9.4124   -0.8032    0.0000 H       1  UNL1        0.0268
     32 H           5.9847    1.3934    0.0000 H       1  UNL1        0.0268
     33 H           5.5862    0.7031    0.0000 H       1  UNL1        0.0268
     34 H           9.9195   -0.1040    0.0000 H       1  UNL1        0.0269
     35 H           9.9195    0.7255    0.0000 H       1  UNL1        0.0269
     36 H           7.2969   -2.3111    0.0000 H       1  UNL1        0.0310
     37 H           7.6880   -1.6152    0.0000 H       1  UNL1        0.0310
     38 H           8.5488    1.8108    0.0000 H       1  UNL1        0.0235
     39 H           7.9288    2.4308    0.0000 H       1  UNL1        0.0235
     40 H           7.3088    1.8108    0.0000 H       1  UNL1        0.0235
     41 H           4.7681    0.3347    0.0000 H       1  UNL1        0.0274
     42 H           3.9700    0.3500    0.0000 H       1  UNL1        0.0274
     43 H           9.3783    2.6553    0.0000 H       1  UNL1        0.0458
     44 H           6.1832   -2.8785    0.0000 H       1  UNL1        0.0572
     45 H           5.9145    0.2991    0.0000 H       1  UNL1        0.0238
     46 H           5.2993    0.9239    0.0000 H       1  UNL1        0.0238
     47 H           4.6745    0.3087    0.0000 H       1  UNL1        0.0238
     48 H           3.9460   -2.7634    0.0000 H       1  UNL1        0.0325
     49 H           4.7443   -2.7603    0.0000 H       1  UNL1        0.0325
     50 H           3.2075   -0.0747    0.0000 H       1  UNL1        0.0281
     51 H           2.8004   -0.7613    0.0000 H       1  UNL1        0.0281
     52 H           3.4025   -2.3649    0.0000 H       1  UNL1        0.0461
     53 H           8.9793    3.2244    0.0000 H       1  UNL1        0.0245
     54 H           8.1038    3.2718    0.0000 H       1  UNL1        0.0245
     55 H           8.0564    2.3963    0.0000 H       1  UNL1        0.0245
     56 H          10.3568    2.8616    0.0000 H       1  UNL1        0.1185
     57 H          10.5783    1.8108    0.0000 H       1  UNL1        0.1185
     58 H           2.0000   -1.9295    0.0000 H       1  UNL1        0.1185
     59 H           2.5334   -2.8616    0.0000 H       1  UNL1        0.1185
@<TRIPOS>BOND
     1    17     1    1
     2     1    56    1
     3     1    57    1
     4    22     2    1
     5     2    58    1
     6     2    59    1
     7     3     4    1
     8     3     7    1
     9     3     9    1
    10     3    14    1
    11     4     5    1
    12     4    10    1
    13     4    24    1
    14     5     6    1
    15     5    13    1
    16     5    25    1
    17     6     8    1
    18     6    11    1
    19     6    26    1
    20     7    12    1
    21     7    17    1
    22     7    27    1
    23     8    15    1
    24     8    16    1
    25     8    19    1
    26     9    11    1
    27     9    28    1
    28     9    29    1
    29    10    12    1
    30    10    30    1
    31    10    31    1
    32    11    32    1
    33    11    33    1
    34    12    34    1
    35    12    35    1
    36    13    18    1
    37    13    36    1
    38    13    37    1
    39    14    38    1
    40    14    39    1
    41    14    40    1
    42    15    18    2
    43    15    20    1
    44    16    21    1
    45    16    41    1
    46    16    42    1
    47    17    23    1
    48    17    43    1
    49    18    44    1
    50    19    45    1
    51    19    46    1
    52    19    47    1
    53    20    22    1
    54    20    48    1
    55    20    49    1
    56    21    22    1
    57    21    50    1
    58    21    51    1
    59    22    52    1
    60    23    53    1
    61    23    54    1
    62    23    55    1
