@<TRIPOS>MOLECULE
IMPHY011383
 46 48 0 0 0
SMALL
GASTEIGER

@<TRIPOS>ATOM
      1 O           3.7230   -1.6446    0.0000 O.3     1  UNL1       -0.4601
      2 O           7.3840    0.4614    0.0000 O.3     1  UNL1       -0.3884
      3 O           4.5447    1.5207    0.0000 O.3     1  UNL1       -0.4610
      4 O           2.0000   -1.2125    0.0000 O.2     1  UNL1       -0.2505
      5 O           6.1053    2.2722    0.0000 O.2     1  UNL1       -0.2512
      6 C           5.4786   -1.5709    0.0000 C.3     1  UNL1        0.0231
      7 C           6.3796   -1.1370    0.0000 C.3     1  UNL1        0.0010
      8 C           4.5777   -1.1370    0.0000 C.3     1  UNL1        0.1168
      9 C           4.3551   -0.1621    0.0000 C.3     1  UNL1        0.0465
     10 C           6.6021   -0.1621    0.0000 C.3     1  UNL1        0.0704
     11 C           4.9786    0.6198    0.0000 C.3     1  UNL1        0.1126
     12 C           5.9786    0.6198    0.0000 C.3     1  UNL1        0.0137
     13 C           3.3648   -0.0755    0.0000 C.3     1  UNL1        0.0632
     14 C           7.0647   -1.8573    0.0000 C.3     1  UNL1       -0.0284
     15 C           5.6146   -2.5556    0.0000 C.2     1  UNL1       -0.0696
     16 C           6.5929   -2.7323    0.0000 C.2     1  UNL1       -0.0843
     17 C           7.5770   -0.3846    0.0000 C.3     1  UNL1       -0.0357
     18 C           2.9749   -0.9900    0.0000 C.2     1  UNL1        0.3107
     19 C           2.8504    0.7820    0.0000 C.3     1  UNL1       -0.0518
     20 C           4.8930   -3.2479    0.0000 C.3     1  UNL1       -0.0434
     21 C           5.1081    2.3470    0.0000 C.2     1  UNL1        0.3042
     22 C           4.6742    3.2479    0.0000 C.3     1  UNL1        0.0332
     23 H           4.9775   -1.9360    0.0000 H       1  UNL1        0.0385
     24 H           6.9775   -0.9728    0.0000 H       1  UNL1        0.0338
     25 H           4.6047   -1.7564    0.0000 H       1  UNL1        0.0744
     26 H           4.1107    0.4077    0.0000 H       1  UNL1        0.0381
     27 H           5.3085    1.1447    0.0000 H       1  UNL1        0.0739
     28 H           6.5372    0.8888    0.0000 H       1  UNL1        0.0329
     29 H           5.8407    1.2242    0.0000 H       1  UNL1        0.0329
     30 H           3.6936    0.4501    0.0000 H       1  UNL1        0.0416
     31 H           7.5765   -2.2073    0.0000 H       1  UNL1        0.0311
     32 H           7.4666   -1.3852    0.0000 H       1  UNL1        0.0311
     33 H           6.8619   -3.2909    0.0000 H       1  UNL1        0.0572
     34 H           7.4391   -0.9891    0.0000 H       1  UNL1        0.0257
     35 H           8.1815   -0.5226    0.0000 H       1  UNL1        0.0257
     36 H           7.7150    0.2199    0.0000 H       1  UNL1        0.0257
     37 H           3.3821    1.1009    0.0000 H       1  UNL1        0.0238
     38 H           2.5315    1.3137    0.0000 H       1  UNL1        0.0238
     39 H           2.3188    0.4631    0.0000 H       1  UNL1        0.0238
     40 H           7.2916    1.0745    0.0000 H       1  UNL1        0.2102
     41 H           4.4638   -2.8005    0.0000 H       1  UNL1        0.0274
     42 H           4.4456   -3.6772    0.0000 H       1  UNL1        0.0274
     43 H           5.3223   -3.6953    0.0000 H       1  UNL1        0.0274
     44 H           5.2328    3.5169    0.0000 H       1  UNL1        0.0342
     45 H           4.4052    3.8065    0.0000 H       1  UNL1        0.0342
     46 H           4.1156    2.9789    0.0000 H       1  UNL1        0.0342
@<TRIPOS>BOND
     1     1     8    1
     2     1    18    1
     3     2    10    1
     4     2    40    1
     5     3    11    1
     6     3    21    1
     7     4    18    2
     8     5    21    2
     9     6     7    1
    10     6     8    1
    11     6    15    1
    12     6    23    1
    13     7    10    1
    14     7    14    1
    15     7    24    1
    16     8     9    1
    17     8    25    1
    18     9    11    1
    19     9    13    1
    20     9    26    1
    21    10    12    1
    22    10    17    1
    23    11    12    1
    24    11    27    1
    25    12    28    1
    26    12    29    1
    27    13    18    1
    28    13    19    1
    29    13    30    1
    30    14    16    1
    31    14    31    1
    32    14    32    1
    33    15    16    2
    34    15    20    1
    35    16    33    1
    36    17    34    1
    37    17    35    1
    38    17    36    1
    39    19    37    1
    40    19    38    1
    41    19    39    1
    42    20    41    1
    43    20    42    1
    44    20    43    1
    45    21    22    1
    46    22    44    1
    47    22    45    1
    48    22    46    1
