@<TRIPOS>MOLECULE
IMPHY008528
 57 59 0 0 0
SMALL
GASTEIGER

@<TRIPOS>ATOM
      1 O           7.6155   -0.4658    0.0000 O.3     1  UNL1       -0.3609
      2 O           6.1262    1.8666    0.0000 O.3     1  UNL1       -0.4507
      3 O           4.0187   -0.7236    0.0000 O.3     1  UNL1       -0.4568
      4 O           4.6960   -2.6497    0.0000 O.3     1  UNL1       -0.4507
      5 O           6.5572   -3.6821    0.0000 O.2     1  UNL1       -0.2932
      6 O           4.8715    3.1240    0.0000 O.2     1  UNL1       -0.2452
      7 O           3.7320    2.8708    0.0000 O.3     1  UNL1       -0.4598
      8 O           2.7316    0.4353    0.0000 O.2     1  UNL1       -0.2511
      9 O           4.8770   -4.3722    0.0000 O.2     1  UNL1       -0.2511
     10 O           2.0000    2.8737    0.0000 O.2     1  UNL1       -0.2512
     11 C           6.6640   -0.7747    0.0000 C.3     1  UNL1        0.0976
     12 C           6.8719    0.2034    0.0000 C.3     1  UNL1        0.1288
     13 C           6.1288    0.8725    0.0000 C.3     1  UNL1        0.1573
     14 C           7.4071   -1.4439    0.0000 C.3     1  UNL1       -0.0146
     15 C           6.4561   -1.7529    0.0000 C.3     1  UNL1       -0.0332
     16 C           5.1777    0.5635    0.0000 C.2     1  UNL1        0.0264
     17 C           7.1992   -2.4220    0.0000 C.3     1  UNL1        0.0125
     18 C           4.9698   -0.4146    0.0000 C.3     1  UNL1        0.1325
     19 C           5.5050   -2.0619    0.0000 C.3     1  UNL1        0.1715
     20 C           5.7129   -1.0838    0.0000 C.3     1  UNL1        0.0352
     21 C           4.5955    1.3693    0.0000 C.2     1  UNL1        0.0799
     22 C           6.2482   -2.7310    0.0000 C.2     1  UNL1        0.1766
     23 C           5.1805    2.1730    0.0000 C.2     1  UNL1        0.3393
     24 C           4.5050   -2.0619    0.0000 C.3     1  UNL1       -0.0176
     25 C           3.7303    1.8708    0.0000 C.3     1  UNL1        0.1243
     26 C           3.0406   -0.5157    0.0000 C.2     1  UNL1        0.3045
     27 C           4.2893   -3.5632    0.0000 C.2     1  UNL1        0.3049
     28 C           2.3714   -1.2589    0.0000 C.3     1  UNL1        0.0333
     29 C           3.2948   -3.6678    0.0000 C.3     1  UNL1        0.0333
     30 C           2.8669    3.3723    0.0000 C.2     1  UNL1        0.3043
     31 C           2.8686    4.3722    0.0000 C.3     1  UNL1        0.0332
     32 H           7.4406    0.8352    0.0000 H       1  UNL1        0.0666
     33 H           6.9048    1.2193    0.0000 H       1  UNL1        0.0811
     34 H           7.9820   -1.6761    0.0000 H       1  UNL1        0.0298
     35 H           7.7357   -0.9181    0.0000 H       1  UNL1        0.0298
     36 H           5.8496   -1.6240    0.0000 H       1  UNL1        0.0258
     37 H           6.3272   -2.3593    0.0000 H       1  UNL1        0.0258
     38 H           7.0625   -1.8818    0.0000 H       1  UNL1        0.0258
     39 H           7.2855   -3.0360    0.0000 H       1  UNL1        0.0344
     40 H           7.8188   -2.4437    0.0000 H       1  UNL1        0.0344
     41 H           4.5090    0.0002    0.0000 H       1  UNL1        0.0785
     42 H           6.2878   -1.3160    0.0000 H       1  UNL1        0.0347
     43 H           6.0415   -0.5580    0.0000 H       1  UNL1        0.0347
     44 H           4.5050   -1.4419    0.0000 H       1  UNL1        0.0272
     45 H           3.8850   -2.0619    0.0000 H       1  UNL1        0.0272
     46 H           4.5050   -2.6819    0.0000 H       1  UNL1        0.0272
     47 H           3.1199    1.9795    0.0000 H       1  UNL1        0.0751
     48 H           3.5173    1.2885    0.0000 H       1  UNL1        0.0751
     49 H           1.9107   -0.8440    0.0000 H       1  UNL1        0.0342
     50 H           1.9566   -1.7196    0.0000 H       1  UNL1        0.0342
     51 H           2.8322   -1.6737    0.0000 H       1  UNL1        0.0342
     52 H           3.2299   -3.0512    0.0000 H       1  UNL1        0.0342
     53 H           2.6782   -3.7326    0.0000 H       1  UNL1        0.0342
     54 H           3.3596   -4.2844    0.0000 H       1  UNL1        0.0342
     55 H           3.4886    4.3712    0.0000 H       1  UNL1        0.0342
     56 H           2.8697    4.9922    0.0000 H       1  UNL1        0.0342
     57 H           2.2486    4.3733    0.0000 H       1  UNL1        0.0342
@<TRIPOS>BOND
     1     1    11    1
     2     1    12    1
     3     2    13    1
     4     2    23    1
     5    18     3    1
     6     3    26    1
     7    19     4    1
     8     4    27    1
     9     5    22    2
    10     6    23    2
    11     7    25    1
    12     7    30    1
    13     8    26    2
    14     9    27    2
    15    10    30    2
    16    11    12    1
    17    11    14    1
    18    11    15    1
    19    12    13    1
    20    12    32    1
    21    13    16    1
    22    13    33    1
    23    14    17    1
    24    14    34    1
    25    14    35    1
    26    15    36    1
    27    15    37    1
    28    15    38    1
    29    16    18    1
    30    16    21    2
    31    17    22    1
    32    17    39    1
    33    17    40    1
    34    18    20    1
    35    18    41    1
    36    19    20    1
    37    19    22    1
    38    19    24    1
    39    20    42    1
    40    20    43    1
    41    21    23    1
    42    21    25    1
    43    24    44    1
    44    24    45    1
    45    24    46    1
    46    25    47    1
    47    25    48    1
    48    26    28    1
    49    27    29    1
    50    28    49    1
    51    28    50    1
    52    28    51    1
    53    29    52    1
    54    29    53    1
    55    29    54    1
    56    30    31    1
    57    31    55    1
    58    31    56    1
    59    31    57    1
