@<TRIPOS>MOLECULE
IMPHY013725
 42 43 0 0 0
SMALL
GASTEIGER

@<TRIPOS>ATOM
      1 O           2.5369   -0.3450    0.0000 O.3     1  UNL1       -0.3910
      2 O           4.2690   -2.3450    0.0000 O.3     1  UNL1       -0.3887
      3 O           4.2690    2.6550    0.0000 O.2     1  UNL1       -0.2923
      4 C           5.1350    0.1550    0.0000 C.3     1  UNL1        0.0063
      5 C           4.2690   -0.3450    0.0000 C.3     1  UNL1        0.0234
      6 C           6.0290   -0.3797    0.0000 C.3     1  UNL1       -0.0337
      7 C           3.4030    0.1550    0.0000 C.3     1  UNL1        0.0684
      8 C           5.1350    1.1550    0.0000 C.2     1  UNL1       -0.0022
      9 C           4.2690   -1.3450    0.0000 C.3     1  UNL1        0.0665
     10 C           6.9350    0.1342    0.0000 C.3     1  UNL1       -0.0462
     11 C           5.1350   -0.8450    0.0000 C.3     1  UNL1       -0.0548
     12 C           3.4030    1.1550    0.0000 C.3     1  UNL1        0.0366
     13 C           4.2690    1.6550    0.0000 C.2     1  UNL1        0.1619
     14 C           6.9350    1.1758    0.0000 C.3     1  UNL1       -0.0338
     15 C           6.0290    1.6897    0.0000 C.2     1  UNL1       -0.0770
     16 C           6.0174   -1.3796    0.0000 C.3     1  UNL1       -0.0616
     17 C           3.2690   -1.3450    0.0000 C.3     1  UNL1       -0.0360
     18 C           5.1350   -1.8450    0.0000 C.3     1  UNL1       -0.0360
     19 H           3.7320   -0.6550    0.0000 H       1  UNL1        0.0362
     20 H           6.5629   -0.6948    0.0000 H       1  UNL1        0.0307
     21 H           3.4030   -0.4650    0.0000 H       1  UNL1        0.0601
     22 H           7.1441   -0.4495    0.0000 H       1  UNL1        0.0271
     23 H           7.5459    0.2403    0.0000 H       1  UNL1        0.0271
     24 H           4.5150   -0.8450    0.0000 H       1  UNL1        0.0238
     25 H           5.1350   -1.4650    0.0000 H       1  UNL1        0.0238
     26 H           5.7550   -0.8450    0.0000 H       1  UNL1        0.0238
     27 H           3.1909    1.7376    0.0000 H       1  UNL1        0.0370
     28 H           2.7924    1.0473    0.0000 H       1  UNL1        0.0370
     29 H           7.5459    1.0697    0.0000 H       1  UNL1        0.0308
     30 H           7.1441    1.7595    0.0000 H       1  UNL1        0.0308
     31 H           6.0218    2.3096    0.0000 H       1  UNL1        0.0576
     32 H           5.3974   -1.3724    0.0000 H       1  UNL1        0.0233
     33 H           6.0102   -1.9996    0.0000 H       1  UNL1        0.0233
     34 H           6.6374   -1.3868    0.0000 H       1  UNL1        0.0233
     35 H           3.2690   -0.7250    0.0000 H       1  UNL1        0.0257
     36 H           2.6490   -1.3450    0.0000 H       1  UNL1        0.0257
     37 H           3.2690   -1.9650    0.0000 H       1  UNL1        0.0257
     38 H           4.8250   -2.3819    0.0000 H       1  UNL1        0.0257
     39 H           5.6720   -2.1550    0.0000 H       1  UNL1        0.0257
     40 H           5.4450   -1.3081    0.0000 H       1  UNL1        0.0257
     41 H           2.0000   -0.0350    0.0000 H       1  UNL1        0.2098
     42 H           3.7320   -2.6550    0.0000 H       1  UNL1        0.2101
@<TRIPOS>BOND
     1     7     1    1
     2     1    41    1
     3     2     9    1
     4     2    42    1
     5     3    13    2
     6     4     5    1
     7     4     6    1
     8     4     8    1
     9     4    11    1
    10     5     7    1
    11     5     9    1
    12     5    19    1
    13     6    10    1
    14     6    16    1
    15     6    20    1
    16     7    12    1
    17     7    21    1
    18     8    13    1
    19     8    15    2
    20     9    17    1
    21     9    18    1
    22    10    14    1
    23    10    22    1
    24    10    23    1
    25    11    24    1
    26    11    25    1
    27    11    26    1
    28    12    13    1
    29    12    27    1
    30    12    28    1
    31    14    15    1
    32    14    29    1
    33    14    30    1
    34    15    31    1
    35    16    32    1
    36    16    33    1
    37    16    34    1
    38    17    35    1
    39    17    36    1
    40    17    37    1
    41    18    38    1
    42    18    39    1
    43    18    40    1
