@<TRIPOS>MOLECULE
IMPHY000258
 61 63 0 0 0
SMALL
GASTEIGER

@<TRIPOS>ATOM
      1 O           8.0901   -0.1897    0.0000 O.2     1  UNL1       -0.4504
      2 O           4.5981   -0.1550    0.0000 O.3     1  UNL1       -0.5060
      3 O           6.3301    2.8450    0.0000 O.3     1  UNL1       -0.5055
      4 O           9.8602    1.8692    0.0000 O.3     1  UNL1       -0.4883
      5 O           8.0785    2.8796    0.0000 O.2     1  UNL1       -0.2830
      6 O          10.7166   -2.6825    0.0000 O.3     1  UNL1       -0.5033
      7 O          12.4525   -1.6892    0.0000 O.3     1  UNL1       -0.5033
      8 C           6.3301   -0.1550    0.0000 C.ar    1  UNL1        0.0412
      9 C           7.1962    0.3450    0.0000 C.ar    1  UNL1        0.1500
     10 C           7.1962    1.3450    0.0000 C.ar    1  UNL1        0.1097
     11 C           5.4641    1.3450    0.0000 C.ar    1  UNL1        0.0403
     12 C           5.4641    0.3450    0.0000 C.ar    1  UNL1        0.1308
     13 C           6.3301    1.8450    0.0000 C.ar    1  UNL1        0.1383
     14 C           6.3301   -1.1550    0.0000 C.3     1  UNL1       -0.0023
     15 C           4.5981    1.8450    0.0000 C.3     1  UNL1       -0.0023
     16 C           8.0901    1.8797    0.0000 C.ar    1  UNL1        0.2381
     17 C           8.9962    0.3242    0.0000 C.ar    1  UNL1        0.1809
     18 C           8.9962    1.3658    0.0000 C.ar    1  UNL1        0.2107
     19 C           5.4641   -1.6550    0.0000 C.2     1  UNL1       -0.0807
     20 C           3.7320    1.3450    0.0000 C.2     1  UNL1       -0.0807
     21 C           9.8602   -0.1792    0.0000 C.ar    1  UNL1        0.0247
     22 C           5.4641   -2.6550    0.0000 C.2     1  UNL1       -0.0793
     23 C           2.8660    1.8450    0.0000 C.2     1  UNL1       -0.0793
     24 C           9.8564   -1.1791    0.0000 C.ar    1  UNL1       -0.0057
     25 C          10.7282    0.3175    0.0000 C.ar    1  UNL1       -0.0473
     26 C           4.5981   -3.1550    0.0000 C.3     1  UNL1       -0.0440
     27 C           6.3301   -3.1550    0.0000 C.3     1  UNL1       -0.0440
     28 C          10.7205   -1.6825    0.0000 C.ar    1  UNL1        0.1589
     29 C           2.0000    1.3450    0.0000 C.3     1  UNL1       -0.0440
     30 C           2.8660    2.8450    0.0000 C.3     1  UNL1       -0.0440
     31 C          11.5923   -0.1858    0.0000 C.ar    1  UNL1       -0.0159
     32 C          11.5884   -1.1858    0.0000 C.ar    1  UNL1        0.1583
     33 C           9.8564    2.8691    0.0000 C.3     1  UNL1        0.0791
     34 H           6.5422   -1.7376    0.0000 H       1  UNL1        0.0358
     35 H           6.9407   -1.0473    0.0000 H       1  UNL1        0.0358
     36 H           4.9966    2.3200    0.0000 H       1  UNL1        0.0358
     37 H           4.1996    2.3200    0.0000 H       1  UNL1        0.0358
     38 H           4.9272   -1.3450    0.0000 H       1  UNL1        0.0575
     39 H           3.7320    0.7250    0.0000 H       1  UNL1        0.0575
     40 H           4.0611    0.1550    0.0000 H       1  UNL1        0.2922
     41 H           5.7932    3.1550    0.0000 H       1  UNL1        0.2922
     42 H           9.3183   -1.4871    0.0000 H       1  UNL1        0.0662
     43 H          10.7306    0.9375    0.0000 H       1  UNL1        0.0626
     44 H           4.2881   -2.6181    0.0000 H       1  UNL1        0.0274
     45 H           4.0611   -3.4650    0.0000 H       1  UNL1        0.0274
     46 H           4.9081   -3.6919    0.0000 H       1  UNL1        0.0274
     47 H           6.0201   -3.6919    0.0000 H       1  UNL1        0.0274
     48 H           6.8671   -3.4650    0.0000 H       1  UNL1        0.0274
     49 H           6.6401   -2.6181    0.0000 H       1  UNL1        0.0274
     50 H           3.4860    2.8450    0.0000 H       1  UNL1        0.0274
     51 H           2.8660    3.4650    0.0000 H       1  UNL1        0.0274
     52 H           2.2460    2.8450    0.0000 H       1  UNL1        0.0274
     53 H           1.6900    1.8819    0.0000 H       1  UNL1        0.0274
     54 H           1.4631    1.0350    0.0000 H       1  UNL1        0.0274
     55 H           2.3100    0.8081    0.0000 H       1  UNL1        0.0274
     56 H          12.1304    0.1221    0.0000 H       1  UNL1        0.0655
     57 H          10.4764    2.8715    0.0000 H       1  UNL1        0.0660
     58 H           9.8540    3.4891    0.0000 H       1  UNL1        0.0660
     59 H           9.2364    2.8668    0.0000 H       1  UNL1        0.0660
     60 H          11.2524   -2.9945    0.0000 H       1  UNL1        0.2923
     61 H          12.9907   -1.3812    0.0000 H       1  UNL1        0.2923
@<TRIPOS>BOND
     1     1     9   ar
     2     1    17   ar
     3     2    12    1
     4     2    40    1
     5     3    13    1
     6     3    41    1
     7     4    18    1
     8     4    33    1
     9     5    16    2
    10     6    28    1
    11     6    60    1
    12     7    32    1
    13     7    61    1
    14     8     9   ar
    15     8    12   ar
    16     8    14    1
    17     9    10   ar
    18    10    13   ar
    19    10    16   ar
    20    11    12   ar
    21    11    13   ar
    22    11    15    1
    23    14    19    1
    24    14    34    1
    25    14    35    1
    26    15    20    1
    27    15    36    1
    28    15    37    1
    29    16    18   ar
    30    17    18   ar
    31    17    21    1
    32    19    22    2
    33    19    38    1
    34    20    23    2
    35    20    39    1
    36    21    24   ar
    37    21    25   ar
    38    22    26    1
    39    22    27    1
    40    23    29    1
    41    23    30    1
    42    24    28   ar
    43    24    42    1
    44    25    31   ar
    45    25    43    1
    46    26    44    1
    47    26    45    1
    48    26    46    1
    49    27    47    1
    50    27    48    1
    51    27    49    1
    52    28    32   ar
    53    29    53    1
    54    29    54    1
    55    29    55    1
    56    30    50    1
    57    30    51    1
    58    30    52    1
    59    31    32   ar
    60    31    56    1
    61    33    57    1
    62    33    58    1
    63    33    59    1
