@<TRIPOS>MOLECULE
IMPHY012111
 36 36 0 0 0
SMALL
GASTEIGER

@<TRIPOS>ATOM
      1 C           4.5981   -1.7500    0.0000 C.3     1  UNL1       -0.0531
      2 C           3.7320   -1.2500    0.0000 C.3     1  UNL1       -0.0531
      3 C           5.4641   -1.2500    0.0000 C.3     1  UNL1       -0.0531
      4 C           2.8660   -1.7500    0.0000 C.3     1  UNL1       -0.0531
      5 C           5.4641   -0.2500    0.0000 C.3     1  UNL1       -0.0531
      6 C           2.0000   -1.2500    0.0000 C.3     1  UNL1       -0.0531
      7 C           4.5981    0.2500    0.0000 C.3     1  UNL1       -0.0531
      8 C           2.0000   -0.2500    0.0000 C.3     1  UNL1       -0.0531
      9 C           4.5981    1.2500    0.0000 C.3     1  UNL1       -0.0531
     10 C           2.8660    0.2500    0.0000 C.3     1  UNL1       -0.0531
     11 C           3.7320    1.7500    0.0000 C.3     1  UNL1       -0.0531
     12 C           2.8660    1.2500    0.0000 C.3     1  UNL1       -0.0531
     13 H           4.1996   -2.2250    0.0000 H       1  UNL1        0.0265
     14 H           4.9966   -2.2250    0.0000 H       1  UNL1        0.0265
     15 H           4.1306   -0.7751    0.0000 H       1  UNL1        0.0265
     16 H           3.3335   -0.7751    0.0000 H       1  UNL1        0.0265
     17 H           5.6762   -1.8326    0.0000 H       1  UNL1        0.0265
     18 H           6.0747   -1.1423    0.0000 H       1  UNL1        0.0265
     19 H           2.4675   -2.2250    0.0000 H       1  UNL1        0.0265
     20 H           3.2646   -2.2250    0.0000 H       1  UNL1        0.0265
     21 H           6.0747   -0.3577    0.0000 H       1  UNL1        0.0265
     22 H           5.6762    0.3326    0.0000 H       1  UNL1        0.0265
     23 H           1.3894   -1.1423    0.0000 H       1  UNL1        0.0265
     24 H           1.7880   -1.8326    0.0000 H       1  UNL1        0.0265
     25 H           3.9875    0.3577    0.0000 H       1  UNL1        0.0265
     26 H           4.3860   -0.3326    0.0000 H       1  UNL1        0.0265
     27 H           1.7880    0.3326    0.0000 H       1  UNL1        0.0265
     28 H           1.3894   -0.3577    0.0000 H       1  UNL1        0.0265
     29 H           5.2087    1.1423    0.0000 H       1  UNL1        0.0265
     30 H           4.8101    1.8326    0.0000 H       1  UNL1        0.0265
     31 H           3.0781   -0.3326    0.0000 H       1  UNL1        0.0265
     32 H           3.4766    0.3577    0.0000 H       1  UNL1        0.0265
     33 H           4.1306    2.2250    0.0000 H       1  UNL1        0.0265
     34 H           3.3335    2.2250    0.0000 H       1  UNL1        0.0265
     35 H           2.6540    1.8326    0.0000 H       1  UNL1        0.0265
     36 H           2.2554    1.1423    0.0000 H       1  UNL1        0.0265
@<TRIPOS>BOND
     1     1     2    1
     2     1     3    1
     3     1    13    1
     4     1    14    1
     5     2     4    1
     6     2    15    1
     7     2    16    1
     8     3     5    1
     9     3    17    1
    10     3    18    1
    11     4     6    1
    12     4    19    1
    13     4    20    1
    14     5     7    1
    15     5    21    1
    16     5    22    1
    17     6     8    1
    18     6    23    1
    19     6    24    1
    20     7     9    1
    21     7    25    1
    22     7    26    1
    23     8    10    1
    24     8    27    1
    25     8    28    1
    26     9    11    1
    27     9    29    1
    28     9    30    1
    29    10    12    1
    30    10    31    1
    31    10    32    1
    32    11    12    1
    33    11    33    1
    34    11    34    1
    35    12    35    1
    36    12    36    1
