@<TRIPOS>MOLECULE
IMPHY001378
 116 122 0 0 0
SMALL
GASTEIGER

@<TRIPOS>ATOM
      1 O           8.8985    1.1632    0.0000 O.3     1  UNL1       -0.3558
      2 O           8.3223   -0.7312    0.0000 O.3     1  UNL1       -0.4580
      3 O           7.0056   -1.4071    0.0000 O.3     1  UNL1       -0.4580
      4 O           6.3847    1.4392    0.0000 O.3     1  UNL1       -0.3820
      5 O           7.0869    1.7218    0.0000 O.3     1  UNL1       -0.4531
      6 O           8.6031   -1.7088    0.0000 O.3     1  UNL1       -0.3876
      7 O           5.7566   -1.7700    0.0000 O.3     1  UNL1       -0.4542
      8 O           4.6856    0.7586    0.0000 O.3     1  UNL1       -0.4502
      9 O           5.4460   -0.2884    0.0000 O.3     1  UNL1       -0.4639
     10 O          11.1876   -1.3964    0.0000 O.3     1  UNL1       -0.4582
     11 O          10.1219   -1.6040    0.0000 O.2     1  UNL1       -0.2512
     12 O           7.6280   -3.3077    0.0000 O.2     1  UNL1       -0.2512
     13 O           5.7066    2.7681    0.0000 O.2     1  UNL1       -0.2449
     14 O           5.2848   -3.4549    0.0000 O.2     1  UNL1       -0.2505
     15 O           3.3456   -0.3390    0.0000 O.2     1  UNL1       -0.2449
     16 O           5.1722   -1.9986    0.0000 O.2     1  UNL1       -0.2512
     17 O          11.8857   -3.0007    0.0000 O.2     1  UNL1       -0.2449
     18 O           1.1641    3.6910    0.0000 O.2     1  UNL1       -0.2677
     19 N           8.5072   -3.5928    0.0000 N.ar    1  UNL1       -0.2588
     20 N           1.4446    1.9818    0.0000 N.ar    1  UNL1       -0.3175
     21 C           7.6736    1.0789    0.0000 C.3     1  UNL1        0.1548
     22 C           7.1892    0.2084    0.0000 C.3     1  UNL1        0.1197
     23 C           9.2343    0.1086    0.0000 C.3     1  UNL1        0.0604
     24 C           8.2503    0.2662    0.0000 C.3     1  UNL1        0.1436
     25 C           6.6102    0.4650    0.0000 C.3     1  UNL1        0.1367
     26 C           7.6730   -0.6624    0.0000 C.3     1  UNL1        0.1443
     27 C          10.0359    0.7007    0.0000 C.3     1  UNL1        0.1104
     28 C           8.6680   -0.7109    0.0000 C.3     1  UNL1        0.1019
     29 C           6.4828    0.9249    0.0000 C.3     1  UNL1        0.1588
     30 C           5.9248   -0.5537    0.0000 C.3     1  UNL1        0.1742
     31 C           5.6211    0.4055    0.0000 C.3     1  UNL1        0.1803
     32 C           6.4334   -0.4464    0.0000 C.3     1  UNL1        0.1080
     33 C           5.7190    0.9185    0.0000 C.3     1  UNL1       -0.0295
     34 C          10.8545   -0.2146    0.0000 C.3     1  UNL1        0.1219
     35 C          10.6118    1.5182    0.0000 C.3     1  UNL1       -0.0321
     36 C           9.2221   -1.1675    0.0000 C.2     1  UNL1        0.3043
     37 C           7.3168   -2.3574    0.0000 C.2     1  UNL1        0.3043
     38 C           6.6988    2.6434    0.0000 C.2     1  UNL1        0.3396
     39 C           6.1400   -2.9365    0.0000 C.2     1  UNL1        0.3110
     40 C           3.6988    0.5966    0.0000 C.2     1  UNL1        0.3411
     41 C           4.8154   -1.0645    0.0000 C.2     1  UNL1        0.3040
     42 C           6.9968   -3.8159    0.0000 C.3     1  UNL1        0.0616
     43 C          10.1919   -0.9234    0.0000 C.3     1  UNL1        0.0332
     44 C          10.9676   -2.6043    0.0000 C.2     1  UNL1        0.3410
     45 C           6.7096   -3.3341    0.0000 C.3     1  UNL1        0.0332
     46 C           7.3029    3.4403    0.0000 C.ar    1  UNL1        0.0590
     47 C           8.1530   -4.2294    0.0000 C.3     1  UNL1        0.0119
     48 C           3.0651    1.3702    0.0000 C.ar    1  UNL1        0.0753
     49 C           3.8812   -1.4213    0.0000 C.3     1  UNL1        0.0332
     50 C          10.2392   -3.5928    0.0000 C.ar    1  UNL1        0.0805
     51 C           6.2571   -4.4888    0.0000 C.3     1  UNL1       -0.0517
     52 C           9.3732   -4.0928    0.0000 C.ar    1  UNL1        0.0588
     53 C           6.9148    4.3619    0.0000 C.ar    1  UNL1       -0.0478
     54 C           8.2951    3.3156    0.0000 C.ar    1  UNL1       -0.0478
     55 C           7.7841   -5.1588    0.0000 C.3     1  UNL1       -0.0562
     56 C           2.0783    1.2082    0.0000 C.ar    1  UNL1        0.0216
     57 C           3.4182    2.3058    0.0000 C.ar    1  UNL1       -0.0412
     58 C          10.2392   -2.5928    0.0000 C.ar    1  UNL1       -0.0446
     59 C           7.5188    5.1588    0.0000 C.ar    1  UNL1       -0.0610
     60 C           8.8991    4.1125    0.0000 C.ar    1  UNL1       -0.0610
     61 C           2.7845    3.0794    0.0000 C.ar    1  UNL1        0.0038
     62 C           9.3732   -2.0928    0.0000 C.ar    1  UNL1       -0.0428
     63 C           8.5110    5.0342    0.0000 C.ar    1  UNL1       -0.0617
     64 C           8.5072   -2.5928    0.0000 C.ar    1  UNL1        0.0279
     65 C           1.7978    2.9174    0.0000 C.ar    1  UNL1        0.2511
     66 C           0.4578    1.8199    0.0000 C.3     1  UNL1        0.0147
     67 H          10.0102   -0.2384    0.0000 H       1  UNL1        0.0393
     68 H           7.7252   -0.0636    0.0000 H       1  UNL1        0.0769
     69 H           7.9120   -1.2345    0.0000 H       1  UNL1        0.0769
     70 H           9.2536   -0.9147    0.0000 H       1  UNL1        0.0635
     71 H           6.0683    1.3859    0.0000 H       1  UNL1        0.0782
     72 H           5.2272   -1.0394    0.0000 H       1  UNL1        0.0803
     73 H           5.1710   -0.0209    0.0000 H       1  UNL1        0.0811
     74 H           6.9365   -0.8087    0.0000 H       1  UNL1        0.0706
     75 H           6.1969   -1.0195    0.0000 H       1  UNL1        0.0706
     76 H           5.4378    0.3659    0.0000 H       1  UNL1        0.0259
     77 H           5.1664    1.1996    0.0000 H       1  UNL1        0.0259
     78 H           6.0001    1.4711    0.0000 H       1  UNL1        0.0259
     79 H          11.1348    0.3385    0.0000 H       1  UNL1        0.0727
     80 H          10.3110   -0.5130    0.0000 H       1  UNL1        0.0727
     81 H          10.1049    1.8753    0.0000 H       1  UNL1        0.0259
     82 H          10.9688    2.0251    0.0000 H       1  UNL1        0.0259
     83 H          11.1187    1.1612    0.0000 H       1  UNL1        0.0259
     84 H           5.7917    1.6202    0.0000 H       1  UNL1        0.2104
     85 H           8.0472   -1.9833    0.0000 H       1  UNL1        0.2100
     86 H           7.0216   -4.4354    0.0000 H       1  UNL1        0.0417
     87 H          10.0405   -0.3222    0.0000 H       1  UNL1        0.0342
     88 H          10.7931   -0.7720    0.0000 H       1  UNL1        0.0342
     89 H          10.3432   -1.5246    0.0000 H       1  UNL1        0.0342
     90 H           7.2361   -3.6614    0.0000 H       1  UNL1        0.0342
     91 H           6.3823   -3.8606    0.0000 H       1  UNL1        0.0342
     92 H           6.1831   -3.0067    0.0000 H       1  UNL1        0.0342
     93 H           8.5376   -4.7156    0.0000 H       1  UNL1        0.0369
     94 H           4.1025   -2.0005    0.0000 H       1  UNL1        0.0342
     95 H           3.3020   -1.6426    0.0000 H       1  UNL1        0.0342
     96 H           3.6600   -0.8421    0.0000 H       1  UNL1        0.0342
     97 H           6.6743   -4.9474    0.0000 H       1  UNL1        0.0238
     98 H           5.7984   -4.9059    0.0000 H       1  UNL1        0.0238
     99 H           5.8399   -4.0301    0.0000 H       1  UNL1        0.0238
    100 H           6.2996    4.4392    0.0000 H       1  UNL1        0.0626
    101 H           8.5357    2.7442    0.0000 H       1  UNL1        0.0626
    102 H           8.3604   -5.3876    0.0000 H       1  UNL1        0.0236
    103 H           7.5554   -5.7351    0.0000 H       1  UNL1        0.0236
    104 H           7.2078   -4.9301    0.0000 H       1  UNL1        0.0236
    105 H           1.8594    0.6282    0.0000 H       1  UNL1        0.0818
    106 H           4.0300    2.4062    0.0000 H       1  UNL1        0.0628
    107 H          10.7762   -2.2828    0.0000 H       1  UNL1        0.0627
    108 H           7.2782    5.7302    0.0000 H       1  UNL1        0.0618
    109 H           9.5143    4.0352    0.0000 H       1  UNL1        0.0618
    110 H           3.0035    3.6594    0.0000 H       1  UNL1        0.0672
    111 H           9.3732   -1.4728    0.0000 H       1  UNL1        0.0633
    112 H           8.8856    5.5282    0.0000 H       1  UNL1        0.0618
    113 H           7.9702   -2.2828    0.0000 H       1  UNL1        0.0829
    114 H           0.5583    1.2080    0.0000 H       1  UNL1        0.0457
    115 H          -0.1540    1.7194    0.0000 H       1  UNL1        0.0457
    116 H           0.3574    2.4317    0.0000 H       1  UNL1        0.0457
@<TRIPOS>BOND
     1    21     1    1
     2     1    27    1
     3    24     2    1
     4     2    36    1
     5    26     3    1
     6     3    37    1
     7    25     4    1
     8     4    84    1
     9    29     5    1
    10     5    38    1
    11    28     6    1
    12     6    85    1
    13     7    30    1
    14     7    39    1
    15    31     8    1
    16     8    40    1
    17     9    32    1
    18     9    41    1
    19    10    34    1
    20    10    44    1
    21    11    36    2
    22    12    37    2
    23    13    38    2
    24    14    39    2
    25    15    40    2
    26    16    41    2
    27    17    44    2
    28    18    65    2
    29    19    52   ar
    30    19    64   ar
    31    20    56   ar
    32    20    65   ar
    33    20    66    1
    34    21    22    1
    35    21    24    1
    36    21    25    1
    37    22    26    1
    38    22    29    1
    39    22    32    1
    40    23    24    1
    41    23    27    1
    42    23    28    1
    43    23    67    1
    44    24    68    1
    45    25    30    1
    46    25    33    1
    47    26    28    1
    48    26    69    1
    49    27    34    1
    50    27    35    1
    51    28    70    1
    52    29    31    1
    53    29    71    1
    54    30    31    1
    55    30    72    1
    56    31    73    1
    57    32    74    1
    58    32    75    1
    59    33    76    1
    60    33    77    1
    61    33    78    1
    62    34    79    1
    63    34    80    1
    64    35    81    1
    65    35    82    1
    66    35    83    1
    67    36    43    1
    68    37    45    1
    69    38    46    1
    70    39    42    1
    71    40    48    1
    72    41    49    1
    73    42    47    1
    74    42    51    1
    75    42    86    1
    76    43    87    1
    77    43    88    1
    78    43    89    1
    79    44    50    1
    80    45    90    1
    81    45    91    1
    82    45    92    1
    83    46    53   ar
    84    46    54   ar
    85    47    52    1
    86    47    55    1
    87    47    93    1
    88    48    56   ar
    89    48    57   ar
    90    49    94    1
    91    49    95    1
    92    49    96    1
    93    50    52   ar
    94    50    58   ar
    95    51    97    1
    96    51    98    1
    97    51    99    1
    98    53    59   ar
    99    53   100    1
   100    54    60   ar
   101    54   101    1
   102    55   102    1
   103    55   103    1
   104    55   104    1
   105    56   105    1
   106    57    61   ar
   107    57   106    1
   108    58    62   ar
   109    58   107    1
   110    59    63   ar
   111    59   108    1
   112    60    63   ar
   113    60   109    1
   114    61    65   ar
   115    61   110    1
   116    62    64   ar
   117    62   111    1
   118    63   112    1
   119    64   113    1
   120    66   114    1
   121    66   115    1
   122    66   116    1
