@<TRIPOS>MOLECULE
IMPHY015539
 38 38 0 0 0
SMALL
GASTEIGER

@<TRIPOS>ATOM
      1 O           2.8660    1.1900    0.0000 O.2     1  UNL1       -0.2876
      2 C           7.1962    0.6900    0.0000 C.3     1  UNL1       -0.0457
      3 C           7.1962   -0.3100    0.0000 C.3     1  UNL1       -0.0317
      4 C           6.3301    1.1900    0.0000 C.3     1  UNL1       -0.0313
      5 C           6.3301   -0.8100    0.0000 C.2     1  UNL1       -0.0762
      6 C           5.4641    0.6900    0.0000 C.2     1  UNL1       -0.0690
      7 C           4.5981   -0.8100    0.0000 C.3     1  UNL1       -0.0057
      8 C           3.7320   -0.3100    0.0000 C.2     1  UNL1        0.0017
      9 C           5.4641   -0.3100    0.0000 C.2     1  UNL1       -0.0806
     10 C           4.5981    1.1900    0.0000 C.2     1  UNL1       -0.0157
     11 C           3.7320    0.6900    0.0000 C.2     1  UNL1        0.1823
     12 C           6.3301   -1.8100    0.0000 C.3     1  UNL1       -0.0438
     13 C           2.8660   -0.8100    0.0000 C.2     1  UNL1       -0.0686
     14 C           5.1951   -0.8365    0.0000 C.3     1  UNL1       -0.0434
     15 C           2.8660   -1.8100    0.0000 C.3     1  UNL1       -0.0434
     16 C           2.0000   -0.3100    0.0000 C.3     1  UNL1       -0.0434
     17 H           7.8067    0.5823    0.0000 H       1  UNL1        0.0271
     18 H           7.4082    1.2726    0.0000 H       1  UNL1        0.0271
     19 H           7.4082   -0.8926    0.0000 H       1  UNL1        0.0310
     20 H           7.8067   -0.2023    0.0000 H       1  UNL1        0.0310
     21 H           6.7287    1.6650    0.0000 H       1  UNL1        0.0310
     22 H           5.9316    1.6650    0.0000 H       1  UNL1        0.0310
     23 H           4.1996   -1.2850    0.0000 H       1  UNL1        0.0357
     24 H           4.9966   -1.2850    0.0000 H       1  UNL1        0.0357
     25 H           5.8626    0.1649    0.0000 H       1  UNL1        0.0575
     26 H           4.5981    1.8100    0.0000 H       1  UNL1        0.0655
     27 H           5.7101   -1.8100    0.0000 H       1  UNL1        0.0274
     28 H           6.3301   -2.4300    0.0000 H       1  UNL1        0.0274
     29 H           6.9501   -1.8100    0.0000 H       1  UNL1        0.0274
     30 H           4.5845   -0.7289    0.0000 H       1  UNL1        0.0274
     31 H           5.0874   -1.4471    0.0000 H       1  UNL1        0.0274
     32 H           5.8056   -0.9441    0.0000 H       1  UNL1        0.0274
     33 H           2.2460   -1.8100    0.0000 H       1  UNL1        0.0274
     34 H           2.8660   -2.4300    0.0000 H       1  UNL1        0.0274
     35 H           3.4860   -1.8100    0.0000 H       1  UNL1        0.0274
     36 H           2.3100    0.2269    0.0000 H       1  UNL1        0.0274
     37 H           1.4631   -0.0000    0.0000 H       1  UNL1        0.0274
     38 H           1.6900   -0.8469    0.0000 H       1  UNL1        0.0274
@<TRIPOS>BOND
     1     1    11    2
     2     2     3    1
     3     2     4    1
     4     2    17    1
     5     2    18    1
     6     3     5    1
     7     3    19    1
     8     3    20    1
     9     4     6    1
    10     4    21    1
    11     4    22    1
    12     5     9    2
    13     5    12    1
    14     6    10    2
    15     6    14    1
    16     7     8    1
    17     7     9    1
    18     7    23    1
    19     7    24    1
    20     8    11    1
    21     8    13    2
    22     9    25    1
    23    10    11    1
    24    10    26    1
    25    12    27    1
    26    12    28    1
    27    12    29    1
    28    13    15    1
    29    13    16    1
    30    14    30    1
    31    14    31    1
    32    14    32    1
    33    15    33    1
    34    15    34    1
    35    15    35    1
    36    16    36    1
    37    16    37    1
    38    16    38    1
