@<TRIPOS>MOLECULE
IMPHY012732
 38 39 0 0 0
SMALL
GASTEIGER

@<TRIPOS>ATOM
      1 O           3.5836   -0.7097    0.0000 O.3     1  UNL1       -0.4532
      2 O           5.3958    2.0950    0.0000 O.3     1  UNL1       -0.3907
      3 O           2.0000    0.0950    0.0000 O.2     1  UNL1       -0.2453
      4 C           4.5298    0.5950    0.0000 C.3     1  UNL1        0.0573
      5 C           4.5298   -0.4050    0.0000 C.3     1  UNL1        0.1311
      6 C           5.3958    1.0950    0.0000 C.3     1  UNL1        0.0696
      7 C           6.2619    0.5950    0.0000 C.3     1  UNL1       -0.0052
      8 C           3.5836    0.8997    0.0000 C.2     1  UNL1        0.0389
      9 C           5.3958   -0.9050    0.0000 C.2     1  UNL1       -0.0443
     10 C           6.2619   -0.4050    0.0000 C.2     1  UNL1       -0.0741
     11 C           3.0000    0.0950    0.0000 C.2     1  UNL1        0.3356
     12 C           5.3958   -1.9050    0.0000 C.2     1  UNL1       -0.0728
     13 C           6.2619   -2.4050    0.0000 C.3     1  UNL1       -0.0284
     14 C           7.1279   -1.9050    0.0000 C.3     1  UNL1       -0.0308
     15 C           7.1279   -0.9050    0.0000 C.2     1  UNL1       -0.0846
     16 C           3.2729    1.8502    0.0000 C.2     1  UNL1       -0.0882
     17 C           4.8053   -0.9351    0.0000 C.3     1  UNL1       -0.0437
     18 C           4.5298   -2.4050    0.0000 C.3     1  UNL1       -0.0437
     19 H           4.4399    1.4402    0.0000 H       1  UNL1        0.0416
     20 H           4.4399   -1.2502    0.0000 H       1  UNL1        0.0786
     21 H           5.9328    1.4050    0.0000 H       1  UNL1        0.0604
     22 H           6.8725    0.4873    0.0000 H       1  UNL1        0.0335
     23 H           6.4739    1.1776    0.0000 H       1  UNL1        0.0335
     24 H           6.0064   -1.0127    0.0000 H       1  UNL1        0.0608
     25 H           5.8633   -2.8800    0.0000 H       1  UNL1        0.0313
     26 H           6.6604   -2.8800    0.0000 H       1  UNL1        0.0313
     27 H           7.3400   -2.4876    0.0000 H       1  UNL1        0.0310
     28 H           7.7385   -1.7973    0.0000 H       1  UNL1        0.0310
     29 H           7.6648   -0.5950    0.0000 H       1  UNL1        0.0572
     30 H           5.9328    2.4050    0.0000 H       1  UNL1        0.2098
     31 H           3.6870    2.3117    0.0000 H       1  UNL1        0.0540
     32 H           2.6663    1.9781    0.0000 H       1  UNL1        0.0540
     33 H           4.5933   -0.3525    0.0000 H       1  UNL1        0.0274
     34 H           4.2227   -1.1471    0.0000 H       1  UNL1        0.0274
     35 H           5.0174   -1.5177    0.0000 H       1  UNL1        0.0274
     36 H           4.2198   -1.8681    0.0000 H       1  UNL1        0.0274
     37 H           3.9929   -2.7150    0.0000 H       1  UNL1        0.0274
     38 H           4.8398   -2.9419    0.0000 H       1  UNL1        0.0274
@<TRIPOS>BOND
     1     1     5    1
     2     1    11    1
     3     6     2    1
     4     2    30    1
     5     3    11    2
     6     4     5    1
     7     4     6    1
     8     4     8    1
     9     4    19    1
    10     5     9    1
    11     5    20    1
    12     6     7    1
    13     6    21    1
    14     7    10    1
    15     7    22    1
    16     7    23    1
    17     8    11    1
    18     8    16    2
    19     9    12    2
    20     9    24    1
    21    10    15    2
    22    10    17    1
    23    12    13    1
    24    12    18    1
    25    13    14    1
    26    13    25    1
    27    13    26    1
    28    14    15    1
    29    14    27    1
    30    14    28    1
    31    15    29    1
    32    16    31    1
    33    16    32    1
    34    17    33    1
    35    17    34    1
    36    17    35    1
    37    18    36    1
    38    18    37    1
    39    18    38    1
