@<TRIPOS>MOLECULE
IMPHY005944
 55 56 0 0 0
SMALL
GASTEIGER

@<TRIPOS>ATOM
      1 O          17.6687    0.3047    0.0000 O.3     1  UNL1       -0.4526
      2 O          17.6687   -1.3047    0.0000 O.3     1  UNL1       -0.4526
      3 O           5.4641    1.5000    0.0000 O.2     1  UNL1       -0.2708
      4 N           4.5981   -0.0000    0.0000 N.am    1  UNL1       -0.3116
      5 C          11.5263    0.0000    0.0000 C.3     1  UNL1       -0.0493
      6 C          10.6603    0.5000    0.0000 C.3     1  UNL1       -0.0493
      7 C           2.8660   -0.0000    0.0000 C.3     1  UNL1       -0.0311
      8 C          12.3923    0.5000    0.0000 C.3     1  UNL1       -0.0344
      9 C           9.7942   -0.0000    0.0000 C.3     1  UNL1       -0.0345
     10 C           3.7320    0.5000    0.0000 C.3     1  UNL1        0.0142
     11 C           2.0000    0.5000    0.0000 C.3     1  UNL1       -0.0612
     12 C           2.8660   -1.0000    0.0000 C.3     1  UNL1       -0.0612
     13 C          13.2583    0.0000    0.0000 C.2     1  UNL1       -0.0835
     14 C           8.9282    0.5000    0.0000 C.2     1  UNL1       -0.0840
     15 C          14.9904    0.0000    0.0000 C.ar    1  UNL1       -0.0216
     16 C          14.1244    0.5000    0.0000 C.2     1  UNL1       -0.0584
     17 C          16.7224    0.0000    0.0000 C.ar    1  UNL1        0.1668
     18 C          15.8564    0.5000    0.0000 C.ar    1  UNL1       -0.0090
     19 C          16.7224   -1.0000    0.0000 C.ar    1  UNL1        0.1663
     20 C          14.9904   -1.0000    0.0000 C.ar    1  UNL1       -0.0509
     21 C          15.8564   -1.5000    0.0000 C.ar    1  UNL1       -0.0156
     22 C           5.4641    0.5000    0.0000 C.2     1  UNL1        0.2369
     23 C           8.0622   -0.0000    0.0000 C.2     1  UNL1       -0.0655
     24 C          18.2523   -0.5000    0.0000 C.3     1  UNL1        0.2332
     25 C           6.3301   -0.0000    0.0000 C.2     1  UNL1        0.0001
     26 C           7.1962    0.5000    0.0000 C.2     1  UNL1       -0.0571
     27 H          11.1278   -0.4749    0.0000 H       1  UNL1        0.0268
     28 H          11.9248   -0.4749    0.0000 H       1  UNL1        0.0268
     29 H          11.0588    0.9749    0.0000 H       1  UNL1        0.0268
     30 H          10.2617    0.9749    0.0000 H       1  UNL1        0.0268
     31 H           2.8660    0.6200    0.0000 H       1  UNL1        0.0311
     32 H          12.7908    0.9749    0.0000 H       1  UNL1        0.0307
     33 H          11.9938    0.9749    0.0000 H       1  UNL1        0.0307
     34 H           9.3957   -0.4749    0.0000 H       1  UNL1        0.0307
     35 H          10.1928   -0.4749    0.0000 H       1  UNL1        0.0307
     36 H           4.1306    0.9749    0.0000 H       1  UNL1        0.0465
     37 H           3.3335    0.9749    0.0000 H       1  UNL1        0.0465
     38 H           2.3100    1.0369    0.0000 H       1  UNL1        0.0233
     39 H           1.4631    0.8100    0.0000 H       1  UNL1        0.0233
     40 H           1.6900   -0.0369    0.0000 H       1  UNL1        0.0233
     41 H           2.2460   -1.0000    0.0000 H       1  UNL1        0.0233
     42 H           2.8660   -1.6200    0.0000 H       1  UNL1        0.0233
     43 H           3.4860   -1.0000    0.0000 H       1  UNL1        0.0233
     44 H          13.2583   -0.6200    0.0000 H       1  UNL1        0.0572
     45 H           4.5981   -0.6200    0.0000 H       1  UNL1        0.1490
     46 H           8.9282    1.1200    0.0000 H       1  UNL1        0.0572
     47 H          14.1244    1.1200    0.0000 H       1  UNL1        0.0620
     48 H          15.8564    1.1200    0.0000 H       1  UNL1        0.0661
     49 H          14.4534   -1.3100    0.0000 H       1  UNL1        0.0625
     50 H          15.8564   -2.1200    0.0000 H       1  UNL1        0.0655
     51 H           8.0622   -0.6200    0.0000 H       1  UNL1        0.0614
     52 H          18.7131   -0.9147    0.0000 H       1  UNL1        0.1166
     53 H          18.7131   -0.0853    0.0000 H       1  UNL1        0.1166
     54 H           6.3301   -0.6200    0.0000 H       1  UNL1        0.0669
     55 H           7.1962    1.1200    0.0000 H       1  UNL1        0.0619
@<TRIPOS>BOND
     1     1    17    1
     2     1    24    1
     3     2    19    1
     4     2    24    1
     5     3    22    2
     6     4    10    1
     7     4    22   am
     8     4    45    1
     9     5     6    1
    10     5     8    1
    11     5    27    1
    12     5    28    1
    13     6     9    1
    14     6    29    1
    15     6    30    1
    16     7    10    1
    17     7    11    1
    18     7    12    1
    19     7    31    1
    20     8    13    1
    21     8    32    1
    22     8    33    1
    23     9    14    1
    24     9    34    1
    25     9    35    1
    26    10    36    1
    27    10    37    1
    28    11    38    1
    29    11    39    1
    30    11    40    1
    31    12    41    1
    32    12    42    1
    33    12    43    1
    34    13    16    2
    35    13    44    1
    36    14    23    2
    37    14    46    1
    38    15    16    1
    39    15    18   ar
    40    15    20   ar
    41    16    47    1
    42    17    18   ar
    43    17    19   ar
    44    18    48    1
    45    19    21   ar
    46    20    21   ar
    47    20    49    1
    48    21    50    1
    49    22    25    1
    50    23    26    1
    51    23    51    1
    52    24    52    1
    53    24    53    1
    54    25    26    2
    55    25    54    1
    56    26    55    1
