@<TRIPOS>MOLECULE
IMPHY003753
 50 52 0 0 0
SMALL
GASTEIGER

@<TRIPOS>ATOM
      1 O           4.2496    0.5343    0.0000 O.3     1  UNL1       -0.4561
      2 O           6.7897    0.0455    0.0000 O.3     1  UNL1       -0.4581
      3 O           5.5205   -2.3273    0.0000 O.3     1  UNL1       -0.3754
      4 O           2.5369    0.5455    0.0000 O.2     1  UNL1       -0.2453
      5 O           7.6557   -1.4322    0.0000 O.2     1  UNL1       -0.2475
      6 O           7.1678   -2.6457    0.0000 O.3     1  UNL1       -0.3916
      7 N           5.0964    2.9785    0.0000 N.3     1  UNL1       -0.2886
      8 C           5.0964    2.0008    0.0000 C.3     1  UNL1        0.0723
      9 C           4.2496    1.5120    0.0000 C.3     1  UNL1        0.1239
     10 C           3.5551    2.4408    0.0000 C.3     1  UNL1       -0.0010
     11 C           4.0765    3.2229    0.0000 C.3     1  UNL1        0.0033
     12 C           5.9430    1.5120    0.0000 C.2     1  UNL1       -0.0148
     13 C           6.0318    3.2446    0.0000 C.3     1  UNL1        0.0182
     14 C           6.6401    2.4408    0.0000 C.2     1  UNL1       -0.0660
     15 C           5.9430    0.5343    0.0000 C.3     1  UNL1        0.1153
     16 C           5.0964   -0.9322    0.0000 C.3     1  UNL1        0.0019
     17 C           5.9430   -1.4210    0.0000 C.3     1  UNL1        0.1880
     18 C           4.2496   -1.4210    0.0000 C.3     1  UNL1       -0.0154
     19 C           3.4030    0.0455    0.0000 C.2     1  UNL1        0.3352
     20 C           3.4030   -0.9322    0.0000 C.2     1  UNL1        0.0328
     21 C           6.7897   -0.9322    0.0000 C.2     1  UNL1        0.3420
     22 C           6.2018   -2.3869    0.0000 C.3     1  UNL1        0.0837
     23 C           5.0964    0.0678    0.0000 C.3     1  UNL1       -0.0589
     24 C           2.5369   -1.4322    0.0000 C.2     1  UNL1       -0.0771
     25 C           2.5370   -2.4322    0.0000 C.3     1  UNL1       -0.0461
     26 H           5.0964    1.1508    0.0000 H       1  UNL1        0.0547
     27 H           3.4430    1.2438    0.0000 H       1  UNL1        0.0753
     28 H           3.0815    2.8409    0.0000 H       1  UNL1        0.0314
     29 H           3.1038    2.0156    0.0000 H       1  UNL1        0.0314
     30 H           4.2907    3.8047    0.0000 H       1  UNL1        0.0428
     31 H           3.5238    3.5039    0.0000 H       1  UNL1        0.0428
     32 H           6.5685    3.5550    0.0000 H       1  UNL1        0.0470
     33 H           5.7900    3.8155    0.0000 H       1  UNL1        0.0470
     34 H           7.2601    2.4420    0.0000 H       1  UNL1        0.0586
     35 H           5.3324    0.6420    0.0000 H       1  UNL1        0.0746
     36 H           5.7310   -0.0483    0.0000 H       1  UNL1        0.0746
     37 H           5.6333   -0.6222    0.0000 H       1  UNL1        0.0335
     38 H           3.8511   -1.8959    0.0000 H       1  UNL1        0.0319
     39 H           4.6481   -1.8960    0.0000 H       1  UNL1        0.0319
     40 H           5.5842   -2.4410    0.0000 H       1  UNL1        0.0591
     41 H           6.1478   -3.0046    0.0000 H       1  UNL1        0.0591
     42 H           5.7164    0.0678    0.0000 H       1  UNL1        0.0234
     43 H           5.0964    0.6878    0.0000 H       1  UNL1        0.0234
     44 H           4.4764    0.0678    0.0000 H       1  UNL1        0.0234
     45 H           4.9028   -2.3814    0.0000 H       1  UNL1        0.2110
     46 H           2.0000   -1.1222    0.0000 H       1  UNL1        0.0574
     47 H           7.3282   -3.2446    0.0000 H       1  UNL1        0.2095
     48 H           1.9170   -2.4322    0.0000 H       1  UNL1        0.0272
     49 H           2.5370   -3.0522    0.0000 H       1  UNL1        0.0272
     50 H           3.1570   -2.4322    0.0000 H       1  UNL1        0.0272
@<TRIPOS>BOND
     1     1     9    1
     2     1    19    1
     3     2    15    1
     4     2    21    1
     5    17     3    1
     6     3    45    1
     7     4    19    2
     8     5    21    2
     9     6    22    1
    10     6    47    1
    11     7     8    1
    12     7    11    1
    13     7    13    1
    14     8     9    1
    15     8    12    1
    16     8    26    1
    17     9    10    1
    18     9    27    1
    19    10    11    1
    20    10    28    1
    21    10    29    1
    22    11    30    1
    23    11    31    1
    24    12    14    2
    25    12    15    1
    26    13    14    1
    27    13    32    1
    28    13    33    1
    29    14    34    1
    30    15    35    1
    31    15    36    1
    32    16    17    1
    33    16    18    1
    34    16    23    1
    35    16    37    1
    36    17    21    1
    37    17    22    1
    38    18    20    1
    39    18    38    1
    40    18    39    1
    41    19    20    1
    42    20    24    2
    43    22    40    1
    44    22    41    1
    45    23    42    1
    46    23    43    1
    47    23    44    1
    48    24    25    1
    49    24    46    1
    50    25    48    1
    51    25    49    1
    52    25    50    1
