@<TRIPOS>MOLECULE
IMPHY008634
 100 105 0 0 0
SMALL
GASTEIGER

@<TRIPOS>ATOM
      1 O           2.3038   -4.9872    0.0000 O.3     1  UNL1       -0.4802
      2 O          10.5636    4.9872    0.0000 O.3     1  UNL1       -0.4802
      3 O           9.0537    5.8358    0.0000 O.2     1  UNL1       -0.2504
      4 O           3.8137   -5.8358    0.0000 O.2     1  UNL1       -0.2504
      5 O           8.2056   -0.5242    0.0000 O.3     1  UNL1       -0.5059
      6 O           4.6617    0.5242    0.0000 O.3     1  UNL1       -0.5059
      7 C           4.6876   -2.5693    0.0000 C.3     1  UNL1       -0.0029
      8 C           8.1798    2.5693    0.0000 C.3     1  UNL1       -0.0029
      9 C           4.6876   -3.5693    0.0000 C.3     1  UNL1       -0.0158
     10 C           8.1798    3.5693    0.0000 C.3     1  UNL1       -0.0158
     11 C           9.0737    4.1039    0.0000 C.3     1  UNL1        0.0684
     12 C           3.7937   -4.1039    0.0000 C.3     1  UNL1        0.0684
     13 C           3.7937   -2.0346    0.0000 C.3     1  UNL1       -0.0433
     14 C           9.0737    2.0346    0.0000 C.3     1  UNL1       -0.0433
     15 C           7.3137    4.0693    0.0000 C.3     1  UNL1       -0.0444
     16 C           5.5536   -4.0693    0.0000 C.3     1  UNL1       -0.0444
     17 C           5.5536   -2.0693    0.0000 C.ar    1  UNL1       -0.0369
     18 C           7.3137    2.0693    0.0000 C.ar    1  UNL1       -0.0369
     19 C           2.8876   -3.5901    0.0000 C.3     1  UNL1       -0.0372
     20 C           9.9798    3.5901    0.0000 C.3     1  UNL1       -0.0372
     21 C           9.9798    2.5484    0.0000 C.3     1  UNL1       -0.0512
     22 C           2.8876   -2.5484    0.0000 C.3     1  UNL1       -0.0512
     23 C           6.4196   -3.5693    0.0000 C.3     1  UNL1       -0.0267
     24 C           6.4477    3.5693    0.0000 C.3     1  UNL1       -0.0267
     25 C           6.4196   -2.5693    0.0000 C.ar    1  UNL1       -0.0367
     26 C           6.4477    2.5693    0.0000 C.ar    1  UNL1       -0.0367
     27 C           4.6876   -1.5693    0.0000 C.3     1  UNL1       -0.0552
     28 C           8.1798    1.5693    0.0000 C.3     1  UNL1       -0.0552
     29 C           4.3036   -4.9641    0.0000 C.3     1  UNL1       -0.0491
     30 C           8.5637    4.9641    0.0000 C.3     1  UNL1       -0.0491
     31 C           5.5376   -1.0278    0.0000 C.ar    1  UNL1       -0.0464
     32 C           7.3298    1.0278    0.0000 C.ar    1  UNL1       -0.0464
     33 C           9.5636    4.9757    0.0000 C.2     1  UNL1        0.3110
     34 C           3.3037   -4.9757    0.0000 C.2     1  UNL1        0.3110
     35 C           7.3296   -2.0624    0.0000 C.ar    1  UNL1        0.0007
     36 C           5.5377    2.0624    0.0000 C.ar    1  UNL1        0.0007
     37 C           6.4356   -0.5000    0.0000 C.ar    1  UNL1        0.0276
     38 C           6.4318    0.5000    0.0000 C.ar    1  UNL1        0.0276
     39 C           5.5297    1.0208    0.0000 C.ar    1  UNL1        0.1283
     40 C           7.3377   -1.0208    0.0000 C.ar    1  UNL1        0.1283
     41 C           4.6775    2.5724    0.0000 C.3     1  UNL1       -0.0178
     42 C           8.1898   -2.5724    0.0000 C.3     1  UNL1       -0.0178
     43 C           9.0616   -2.0824    0.0000 C.3     1  UNL1       -0.0585
     44 C           8.1783   -3.5723    0.0000 C.3     1  UNL1       -0.0585
     45 C           4.6891    3.5723    0.0000 C.3     1  UNL1       -0.0585
     46 C           3.8058    2.0824    0.0000 C.3     1  UNL1       -0.0585
     47 H           4.6924   -4.1892    0.0000 H       1  UNL1        0.0320
     48 H           8.1750    4.1892    0.0000 H       1  UNL1        0.0320
     49 H           4.1982   -1.5648    0.0000 H       1  UNL1        0.0274
     50 H           3.4000   -1.5556    0.0000 H       1  UNL1        0.0274
     51 H           8.6691    1.5648    0.0000 H       1  UNL1        0.0274
     52 H           9.4673    1.5556    0.0000 H       1  UNL1        0.0274
     53 H           5.1551   -4.5442    0.0000 H       1  UNL1        0.0272
     54 H           5.9521   -4.5442    0.0000 H       1  UNL1        0.0272
     55 H           7.7122    4.5442    0.0000 H       1  UNL1        0.0272
     56 H           6.9152    4.5442    0.0000 H       1  UNL1        0.0272
     57 H           2.2767   -3.4840    0.0000 H       1  UNL1        0.0276
     58 H           2.6785   -4.1738    0.0000 H       1  UNL1        0.0276
     59 H          10.5906    3.4840    0.0000 H       1  UNL1        0.0276
     60 H          10.1888    4.1738    0.0000 H       1  UNL1        0.0276
     61 H          10.1888    1.9648    0.0000 H       1  UNL1        0.0266
     62 H          10.5906    2.6545    0.0000 H       1  UNL1        0.0266
     63 H           2.6785   -1.9648    0.0000 H       1  UNL1        0.0266
     64 H           2.2767   -2.6545    0.0000 H       1  UNL1        0.0266
     65 H           6.6317   -4.1519    0.0000 H       1  UNL1        0.0313
     66 H           7.0302   -3.4616    0.0000 H       1  UNL1        0.0313
     67 H           6.2356    4.1519    0.0000 H       1  UNL1        0.0313
     68 H           5.8371    3.4616    0.0000 H       1  UNL1        0.0313
     69 H           7.5598    1.5693    0.0000 H       1  UNL1        0.0238
     70 H           8.1798    0.9493    0.0000 H       1  UNL1        0.0238
     71 H           8.7998    1.5693    0.0000 H       1  UNL1        0.0238
     72 H           5.3076   -1.5693    0.0000 H       1  UNL1        0.0238
     73 H           4.6876   -0.9493    0.0000 H       1  UNL1        0.0238
     74 H           4.0676   -1.5693    0.0000 H       1  UNL1        0.0238
     75 H           9.0970    5.2803    0.0000 H       1  UNL1        0.0240
     76 H           8.2475    5.4974    0.0000 H       1  UNL1        0.0240
     77 H           8.0304    4.6479    0.0000 H       1  UNL1        0.0240
     78 H           3.7703   -5.2803    0.0000 H       1  UNL1        0.0240
     79 H           4.6198   -5.4974    0.0000 H       1  UNL1        0.0240
     80 H           4.8370   -4.6479    0.0000 H       1  UNL1        0.0240
     81 H           4.9971   -0.7240    0.0000 H       1  UNL1        0.0628
     82 H           7.8703    0.7240    0.0000 H       1  UNL1        0.0628
     83 H           8.1970   -1.9524    0.0000 H       1  UNL1        0.0345
     84 H           4.6703    1.9524    0.0000 H       1  UNL1        0.0345
     85 H           2.0000   -5.5277    0.0000 H       1  UNL1        0.2951
     86 H          10.8673    5.5277    0.0000 H       1  UNL1        0.2951
     87 H           3.5020    2.6229    0.0000 H       1  UNL1        0.0235
     88 H           3.2653    1.7787    0.0000 H       1  UNL1        0.0235
     89 H           9.3654   -2.6229    0.0000 H       1  UNL1        0.0235
     90 H           9.6021   -1.7787    0.0000 H       1  UNL1        0.0235
     91 H           4.1095    1.5420    0.0000 H       1  UNL1        0.0235
     92 H           5.3090    3.5652    0.0000 H       1  UNL1        0.0235
     93 H           4.6962    4.1923    0.0000 H       1  UNL1        0.0235
     94 H           4.0691    3.5795    0.0000 H       1  UNL1        0.0235
     95 H           7.5583   -3.5652    0.0000 H       1  UNL1        0.0235
     96 H           8.1711   -4.1923    0.0000 H       1  UNL1        0.0235
     97 H           8.7578   -1.5420    0.0000 H       1  UNL1        0.0235
     98 H           8.7982   -3.5795    0.0000 H       1  UNL1        0.0235
     99 H           8.7414   -0.8362    0.0000 H       1  UNL1        0.2922
    100 H           4.1260    0.8362    0.0000 H       1  UNL1        0.2922
@<TRIPOS>BOND
     1     1    34    1
     2     1    85    1
     3     2    33    1
     4     2    86    1
     5     3    33    2
     6     4    34    2
     7     5    40    1
     8     5    99    1
     9     6    39    1
    10     6   100    1
    11     7     9    1
    12     7    13    1
    13     7    17    1
    14     7    27    1
    15     8    10    1
    16     8    14    1
    17     8    18    1
    18     8    28    1
    19     9    12    1
    20     9    16    1
    21     9    47    1
    22    10    11    1
    23    10    15    1
    24    10    48    1
    25    11    20    1
    26    11    30    1
    27    11    33    1
    28    12    19    1
    29    12    29    1
    30    12    34    1
    31    13    22    1
    32    13    49    1
    33    13    50    1
    34    14    21    1
    35    14    51    1
    36    14    52    1
    37    15    24    1
    38    15    55    1
    39    15    56    1
    40    16    23    1
    41    16    53    1
    42    16    54    1
    43    17    25   ar
    44    17    31   ar
    45    18    26   ar
    46    18    32   ar
    47    19    22    1
    48    19    57    1
    49    19    58    1
    50    20    21    1
    51    20    59    1
    52    20    60    1
    53    21    61    1
    54    21    62    1
    55    22    63    1
    56    22    64    1
    57    23    25    1
    58    23    65    1
    59    23    66    1
    60    24    26    1
    61    24    67    1
    62    24    68    1
    63    25    35   ar
    64    26    36   ar
    65    27    72    1
    66    27    73    1
    67    27    74    1
    68    28    69    1
    69    28    70    1
    70    28    71    1
    71    29    78    1
    72    29    79    1
    73    29    80    1
    74    30    75    1
    75    30    76    1
    76    30    77    1
    77    31    37   ar
    78    31    81    1
    79    32    38   ar
    80    32    82    1
    81    35    40   ar
    82    35    42    1
    83    36    39   ar
    84    36    41    1
    85    37    38    1
    86    37    40   ar
    87    38    39   ar
    88    41    45    1
    89    41    46    1
    90    41    84    1
    91    42    43    1
    92    42    44    1
    93    42    83    1
    94    43    89    1
    95    43    90    1
    96    43    97    1
    97    44    95    1
    98    44    96    1
    99    44    98    1
   100    45    92    1
   101    45    93    1
   102    45    94    1
   103    46    87    1
   104    46    88    1
   105    46    91    1
