@<TRIPOS>MOLECULE
IMPHY000971
 85 89 0 0 0
SMALL
GASTEIGER

@<TRIPOS>ATOM
      1 O           5.6690   -2.3845    0.0000 O.3     1  UNL1       -0.3635
      2 O           7.9011   -1.5185    0.0000 O.3     1  UNL1       -0.4529
      3 O           4.4206   -2.5531    0.0000 O.3     1  UNL1       -0.4566
      4 O           2.9258    1.5039    0.0000 O.3     1  UNL1       -0.3369
      5 O           7.9011    0.4815    0.0000 O.3     1  UNL1       -0.3880
      6 O           6.1690   -2.5185    0.0000 O.3     1  UNL1       -0.4640
      7 O           2.0000    3.1600    0.0000 O.2     1  UNL1       -0.4708
      8 O           8.7671   -0.0185    0.0000 O.2     1  UNL1       -0.2463
      9 O           2.6887   -2.5731    0.0000 O.2     1  UNL1       -0.2511
     10 O          10.4991   -2.0185    0.0000 O.3     1  UNL1       -0.4471
     11 O           5.3030   -4.0185    0.0000 O.2     1  UNL1       -0.2512
     12 O           9.6331   -3.5185    0.0000 O.2     1  UNL1       -0.2511
     13 C           5.3030   -1.0185    0.0000 C.3     1  UNL1        0.0838
     14 C           6.1690   -1.5185    0.0000 C.3     1  UNL1        0.1444
     15 C           5.3030   -0.0185    0.0000 C.3     1  UNL1       -0.0118
     16 C           4.4090    0.5162    0.0000 C.3     1  UNL1        0.0188
     17 C           7.0350   -1.0185    0.0000 C.3     1  UNL1        0.1605
     18 C           6.6690   -2.3845    0.0000 C.3     1  UNL1        0.0820
     19 C           6.1690    0.4815    0.0000 C.3     1  UNL1       -0.0187
     20 C           4.4090   -1.5532    0.0000 C.3     1  UNL1        0.1333
     21 C           7.0350   -0.0185    0.0000 C.3     1  UNL1        0.0952
     22 C           5.3030   -2.0185    0.0000 C.3     1  UNL1        0.1049
     23 C           3.9191    1.3879    0.0000 C.3     1  UNL1        0.0727
     24 C           3.5030    0.0023    0.0000 C.2     1  UNL1       -0.0644
     25 C           3.5030   -1.0393    0.0000 C.2     1  UNL1       -0.0436
     26 C           4.9190    1.3763    0.0000 C.3     1  UNL1       -0.0532
     27 C           4.3364    2.2967    0.0000 C.3     1  UNL1       -0.0135
     28 C           3.6010    2.9744    0.0000 C.3     1  UNL1        0.0451
     29 C           2.6389    0.5056    0.0000 C.3     1  UNL1       -0.0431
     30 C           2.7292    2.4844    0.0000 C.3     1  UNL1        0.2075
     31 C           8.7671   -1.0185    0.0000 C.2     1  UNL1        0.3517
     32 C           3.4030    3.9485    0.0000 C.2     1  UNL1       -0.0405
     33 C           3.5604   -3.0631    0.0000 C.2     1  UNL1        0.3045
     34 C           6.1690   -3.5185    0.0000 C.2     1  UNL1        0.3040
     35 C           2.4156    4.0630    0.0000 C.2     1  UNL1        0.0844
     36 C           9.6331   -1.5185    0.0000 C.3     1  UNL1        0.2059
     37 C           3.5720   -4.0630    0.0000 C.3     1  UNL1        0.0333
     38 C          10.1331   -0.6525    0.0000 C.3     1  UNL1       -0.0053
     39 C           7.0350   -4.0185    0.0000 C.3     1  UNL1        0.0332
     40 C           9.1331   -2.3845    0.0000 C.3     1  UNL1       -0.0142
     41 C          11.1331   -0.6525    0.0000 C.3     1  UNL1       -0.0611
     42 C          10.4991   -3.0185    0.0000 C.2     1  UNL1        0.3050
     43 C          11.3652   -3.5185    0.0000 C.3     1  UNL1        0.0333
     44 H           5.3095    0.8315    0.0000 H       1  UNL1        0.0319
     45 H           7.0350   -1.6385    0.0000 H       1  UNL1        0.0790
     46 H           6.7767   -2.9951    0.0000 H       1  UNL1        0.0590
     47 H           7.2516   -2.1725    0.0000 H       1  UNL1        0.0590
     48 H           6.5675    0.9564    0.0000 H       1  UNL1        0.0294
     49 H           5.7705    0.9564    0.0000 H       1  UNL1        0.0294
     50 H           3.8751   -1.8683    0.0000 H       1  UNL1        0.0787
     51 H           7.0350    0.6015    0.0000 H       1  UNL1        0.0631
     52 H           4.6924   -1.9108    0.0000 H       1  UNL1        0.0705
     53 H           5.0909   -2.6011    0.0000 H       1  UNL1        0.0705
     54 H           3.4479    0.6804    0.0000 H       1  UNL1        0.0606
     55 H           2.9672   -1.3514    0.0000 H       1  UNL1        0.0608
     56 H           5.4523    1.0602    0.0000 H       1  UNL1        0.0239
     57 H           5.2352    1.9097    0.0000 H       1  UNL1        0.0239
     58 H           4.3857    1.6925    0.0000 H       1  UNL1        0.0239
     59 H           4.8697    1.9805    0.0000 H       1  UNL1        0.0298
     60 H           4.7066    2.7940    0.0000 H       1  UNL1        0.0298
     61 H           4.3414    3.3918    0.0000 H       1  UNL1        0.0405
     62 H           2.9510    1.0414    0.0000 H       1  UNL1        0.0275
     63 H           2.1031    0.8177    0.0000 H       1  UNL1        0.0275
     64 H           2.3268   -0.0301    0.0000 H       1  UNL1        0.0275
     65 H           1.9877    2.0689    0.0000 H       1  UNL1        0.1061
     66 H           7.9011    1.1015    0.0000 H       1  UNL1        0.2099
     67 H           3.8224    4.4052    0.0000 H       1  UNL1        0.0607
     68 H           2.1118    4.6035    0.0000 H       1  UNL1        0.1021
     69 H           2.9520   -4.0702    0.0000 H       1  UNL1        0.0342
     70 H           3.5792   -4.6830    0.0000 H       1  UNL1        0.0342
     71 H           4.1919   -4.0559    0.0000 H       1  UNL1        0.0342
     72 H          10.2408   -0.0419    0.0000 H       1  UNL1        0.0306
     73 H           9.5505   -0.4404    0.0000 H       1  UNL1        0.0306
     74 H           6.7250   -4.5554    0.0000 H       1  UNL1        0.0342
     75 H           7.5720   -4.3285    0.0000 H       1  UNL1        0.0342
     76 H           7.3450   -3.4816    0.0000 H       1  UNL1        0.0342
     77 H           8.5962   -2.0745    0.0000 H       1  UNL1        0.0274
     78 H           8.8231   -2.9215    0.0000 H       1  UNL1        0.0274
     79 H           9.6700   -2.6945    0.0000 H       1  UNL1        0.0274
     80 H          11.1331   -1.2725    0.0000 H       1  UNL1        0.0231
     81 H          11.7531   -0.6525    0.0000 H       1  UNL1        0.0231
     82 H          11.1331   -0.0325    0.0000 H       1  UNL1        0.0231
     83 H          11.0552   -4.0554    0.0000 H       1  UNL1        0.0342
     84 H          11.9021   -3.8285    0.0000 H       1  UNL1        0.0342
     85 H          11.6752   -2.9816    0.0000 H       1  UNL1        0.0342
@<TRIPOS>BOND
     1    14     1    1
     2     1    18    1
     3    17     2    1
     4     2    31    1
     5    20     3    1
     6     3    33    1
     7     4    23    1
     8     4    30    1
     9    21     5    1
    10     5    66    1
    11     6    22    1
    12     6    34    1
    13     7    30    1
    14     7    35    1
    15     8    31    2
    16     9    33    2
    17    36    10    1
    18    10    42    1
    19    11    34    2
    20    12    42    2
    21    13    14    1
    22    13    15    1
    23    13    20    1
    24    13    22    1
    25    14    17    1
    26    14    18    1
    27    15    16    1
    28    15    19    1
    29    15    44    1
    30    16    23    1
    31    16    24    1
    32    16    26    1
    33    17    21    1
    34    17    45    1
    35    18    46    1
    36    18    47    1
    37    19    21    1
    38    19    48    1
    39    19    49    1
    40    20    25    1
    41    20    50    1
    42    21    51    1
    43    22    52    1
    44    22    53    1
    45    23    27    1
    46    23    54    1
    47    24    25    2
    48    24    29    1
    49    25    55    1
    50    26    56    1
    51    26    57    1
    52    26    58    1
    53    27    28    1
    54    27    59    1
    55    27    60    1
    56    28    30    1
    57    28    32    1
    58    28    61    1
    59    29    62    1
    60    29    63    1
    61    29    64    1
    62    30    65    1
    63    31    36    1
    64    32    35    2
    65    32    67    1
    66    33    37    1
    67    34    39    1
    68    35    68    1
    69    36    38    1
    70    36    40    1
    71    37    69    1
    72    37    70    1
    73    37    71    1
    74    38    41    1
    75    38    72    1
    76    38    73    1
    77    39    74    1
    78    39    75    1
    79    39    76    1
    80    40    77    1
    81    40    78    1
    82    40    79    1
    83    41    80    1
    84    41    81    1
    85    41    82    1
    86    42    43    1
    87    43    83    1
    88    43    84    1
    89    43    85    1
