@<TRIPOS>MOLECULE
IMPHY005399
 19 18 0 0 0
SMALL
GASTEIGER

@<TRIPOS>ATOM
      1 S           6.3301    0.2500    0.0000 S.3     1  UNL1       -0.0777
      2 S           4.5981    0.2500    0.0000 S.3     1  UNL1       -0.0777
      3 S           5.4641   -0.2500    0.0000 S.3     1  UNL1       -0.0236
      4 C           7.1962   -0.2500    0.0000 C.3     1  UNL1        0.0225
      5 C           3.7320   -0.2500    0.0000 C.3     1  UNL1        0.0225
      6 C           8.0622    0.2500    0.0000 C.2     1  UNL1       -0.0805
      7 C           2.8660    0.2500    0.0000 C.2     1  UNL1       -0.0805
      8 C           8.9282   -0.2500    0.0000 C.2     1  UNL1       -0.1018
      9 C           2.0000   -0.2500    0.0000 C.2     1  UNL1       -0.1018
     10 H           3.3335   -0.7249    0.0000 H       1  UNL1        0.0427
     11 H           4.1306   -0.7249    0.0000 H       1  UNL1        0.0427
     12 H           6.7976   -0.7249    0.0000 H       1  UNL1        0.0427
     13 H           7.5947   -0.7249    0.0000 H       1  UNL1        0.0427
     14 H           8.0622    0.8700    0.0000 H       1  UNL1        0.0575
     15 H           2.8660    0.8700    0.0000 H       1  UNL1        0.0575
     16 H           8.9282   -0.8700    0.0000 H       1  UNL1        0.0532
     17 H           9.4651    0.0600    0.0000 H       1  UNL1        0.0532
     18 H           1.4631    0.0600    0.0000 H       1  UNL1        0.0532
     19 H           2.0000   -0.8700    0.0000 H       1  UNL1        0.0532
@<TRIPOS>BOND
     1     1     3    1
     2     1     4    1
     3     2     3    1
     4     2     5    1
     5     4     6    1
     6     4    12    1
     7     4    13    1
     8     5     7    1
     9     5    10    1
    10     5    11    1
    11     6     8    2
    12     6    14    1
    13     7     9    2
    14     7    15    1
    15     8    16    1
    16     8    17    1
    17     9    18    1
    18     9    19    1
