@<TRIPOS>MOLECULE
IMPHY016434
 22 21 0 0 0
SMALL
GASTEIGER

@<TRIPOS>ATOM
      1 O           7.1962   -0.0600    0.0000 O.2     1  UNL1       -0.3010
      2 C           3.7320   -0.0600    0.0000 C.3     1  UNL1       -0.0438
      3 C           4.5981    0.4400    0.0000 C.3     1  UNL1       -0.0441
      4 C           2.8660    0.4400    0.0000 C.3     1  UNL1       -0.0533
      5 C           3.7320   -1.0600    0.0000 C.3     1  UNL1       -0.0624
      6 C           5.4641   -0.0600    0.0000 C.3     1  UNL1        0.0030
      7 C           2.0000   -0.0600    0.0000 C.3     1  UNL1       -0.0650
      8 C           6.3301    0.4400    0.0000 C.2     1  UNL1        0.1203
      9 H           4.2690   -0.3700    0.0000 H       1  UNL1        0.0298
     10 H           4.9966    0.9149    0.0000 H       1  UNL1        0.0272
     11 H           4.1996    0.9149    0.0000 H       1  UNL1        0.0272
     12 H           3.2646    0.9149    0.0000 H       1  UNL1        0.0265
     13 H           2.4675    0.9149    0.0000 H       1  UNL1        0.0265
     14 H           3.1120   -1.0600    0.0000 H       1  UNL1        0.0232
     15 H           3.7320   -1.6800    0.0000 H       1  UNL1        0.0232
     16 H           4.3520   -1.0600    0.0000 H       1  UNL1        0.0232
     17 H           5.0656   -0.5349    0.0000 H       1  UNL1        0.0339
     18 H           5.8626   -0.5349    0.0000 H       1  UNL1        0.0339
     19 H           1.6900    0.4769    0.0000 H       1  UNL1        0.0230
     20 H           1.4631   -0.3700    0.0000 H       1  UNL1        0.0230
     21 H           2.3100   -0.5969    0.0000 H       1  UNL1        0.0230
     22 H           6.3301    1.0600    0.0000 H       1  UNL1        0.1026
@<TRIPOS>BOND
     1     1     8    2
     2     2     3    1
     3     2     4    1
     4     2     5    1
     5     2     9    1
     6     3     6    1
     7     3    10    1
     8     3    11    1
     9     4     7    1
    10     4    12    1
    11     4    13    1
    12     5    14    1
    13     5    15    1
    14     5    16    1
    15     6     8    1
    16     6    17    1
    17     6    18    1
    18     7    19    1
    19     7    20    1
    20     7    21    1
    21     8    22    1
