@<TRIPOS>MOLECULE
IMPHY013953
 14 14 0 0 0
SMALL
GASTEIGER

@<TRIPOS>ATOM
      1 O           3.7320    1.3450    0.0000 O.3     1  UNL1       -0.3799
      2 O           2.0000    0.3450    0.0000 O.2     1  UNL1       -0.2896
      3 C           3.7320    0.3450    0.0000 C.3     1  UNL1        0.1354
      4 C           2.8660   -0.1550    0.0000 C.2     1  UNL1        0.1882
      5 C           4.5981   -0.1550    0.0000 C.2     1  UNL1       -0.0484
      6 C           2.8660   -1.1550    0.0000 C.2     1  UNL1       -0.0163
      7 C           4.5981   -1.1550    0.0000 C.2     1  UNL1       -0.0628
      8 C           3.7320   -1.6550    0.0000 C.2     1  UNL1       -0.0586
      9 H           4.2690    0.6550    0.0000 H       1  UNL1        0.0721
     10 H           5.1350    0.1550    0.0000 H       1  UNL1        0.0602
     11 H           2.3291   -1.4650    0.0000 H       1  UNL1        0.0653
     12 H           5.1350   -1.4650    0.0000 H       1  UNL1        0.0615
     13 H           3.7320   -2.2750    0.0000 H       1  UNL1        0.0619
     14 H           4.2690    1.6550    0.0000 H       1  UNL1        0.2108
@<TRIPOS>BOND
     1     1     3    1
     2     1    14    1
     3     2     4    2
     4     3     4    1
     5     3     5    1
     6     3     9    1
     7     4     6    1
     8     5     7    2
     9     5    10    1
    10     6     8    2
    11     6    11    1
    12     7     8    1
    13     7    12    1
    14     8    13    1
