@<TRIPOS>MOLECULE
IMPHY008525
 49 51 0 0 0
SMALL
GASTEIGER

@<TRIPOS>ATOM
      1 O           3.7782    1.7000    0.0000 O.2     1  UNL1       -0.5030
      2 O           5.5442    2.7378    0.0000 O.2     1  UNL1       -0.2836
      3 O           8.1860    2.2103    0.0000 O.3     1  UNL1       -0.3844
      4 C           3.8000   -0.3314    0.0000 C.3     1  UNL1        0.0188
      5 C           2.9061   -1.8661    0.0000 C.3     1  UNL1       -0.0128
      6 C           3.8000   -1.3314    0.0000 C.2     1  UNL1       -0.0535
      7 C           2.9061    0.2032    0.0000 C.3     1  UNL1       -0.0397
      8 C           2.0000   -1.3522    0.0000 C.3     1  UNL1       -0.0441
      9 C           2.0000   -0.3106    0.0000 C.3     1  UNL1       -0.0512
     10 C           4.6660    0.1686    0.0000 C.2     1  UNL1        0.0149
     11 C           3.8000    0.6686    0.0000 C.3     1  UNL1       -0.0516
     12 C           2.4161   -2.7378    0.0000 C.3     1  UNL1       -0.0561
     13 C           3.4160   -2.7263    0.0000 C.3     1  UNL1       -0.0561
     14 C           4.6660   -1.8314    0.0000 C.2     1  UNL1       -0.0606
     15 C           5.5321   -0.3314    0.0000 C.2     1  UNL1       -0.0170
     16 C           5.5321   -1.3314    0.0000 C.2     1  UNL1       -0.0542
     17 C           4.6500    1.2101    0.0000 C.2     1  UNL1        0.1686
     18 C           6.4421    0.1754    0.0000 C.2     1  UNL1       -0.0445
     19 C           6.4501    1.2170    0.0000 C.2     1  UNL1        0.0342
     20 C           5.5480    1.7378    0.0000 C.2     1  UNL1        0.2262
     21 C           7.3180    1.7137    0.0000 C.3     1  UNL1        0.0890
     22 C           7.8147    0.8457    0.0000 C.3     1  UNL1       -0.0320
     23 C           6.8214    2.5816    0.0000 C.3     1  UNL1       -0.0320
     24 H           3.3107    0.6730    0.0000 H       1  UNL1        0.0277
     25 H           2.5124    0.6823    0.0000 H       1  UNL1        0.0277
     26 H           1.3891   -1.2461    0.0000 H       1  UNL1        0.0273
     27 H           1.7909   -1.9359    0.0000 H       1  UNL1        0.0273
     28 H           1.7909    0.2731    0.0000 H       1  UNL1        0.0266
     29 H           1.3891   -0.4167    0.0000 H       1  UNL1        0.0266
     30 H           4.4200    0.6686    0.0000 H       1  UNL1        0.0241
     31 H           3.8000    1.2886    0.0000 H       1  UNL1        0.0241
     32 H           3.1800    0.6686    0.0000 H       1  UNL1        0.0241
     33 H           2.8827   -3.0425    0.0000 H       1  UNL1        0.0238
     34 H           3.7322   -3.2596    0.0000 H       1  UNL1        0.0238
     35 H           3.9494   -2.4101    0.0000 H       1  UNL1        0.0238
     36 H           1.8756   -2.4341    0.0000 H       1  UNL1        0.0238
     37 H           2.1123   -3.2783    0.0000 H       1  UNL1        0.0238
     38 H           2.9566   -3.0416    0.0000 H       1  UNL1        0.0238
     39 H           4.6660   -2.4514    0.0000 H       1  UNL1        0.0618
     40 H           6.0690   -1.6414    0.0000 H       1  UNL1        0.0624
     41 H           6.9754   -0.1408    0.0000 H       1  UNL1        0.0628
     42 H           3.7711    2.3200    0.0000 H       1  UNL1        0.2923
     43 H           7.2766    0.5378    0.0000 H       1  UNL1        0.0260
     44 H           7.3595    2.8896    0.0000 H       1  UNL1        0.0260
     45 H           6.5134    3.1198    0.0000 H       1  UNL1        0.0260
     46 H           8.1226    0.3076    0.0000 H       1  UNL1        0.0260
     47 H           6.2832    2.2737    0.0000 H       1  UNL1        0.0260
     48 H           8.3528    1.1537    0.0000 H       1  UNL1        0.0260
     49 H           8.7217    1.8983    0.0000 H       1  UNL1        0.2106
@<TRIPOS>BOND
     1     1    17    1
     2     1    42    1
     3     2    20    2
     4     3    21    1
     5     3    49    1
     6     4     6    1
     7     4     7    1
     8     4    10    1
     9     4    11    1
    10     5     6    1
    11     5     8    1
    12     5    12    1
    13     5    13    1
    14     6    14    2
    15     7     9    1
    16     7    24    1
    17     7    25    1
    18     8     9    1
    19     8    26    1
    20     8    27    1
    21     9    28    1
    22     9    29    1
    23    10    15    1
    24    10    17    2
    25    11    30    1
    26    11    31    1
    27    11    32    1
    28    12    36    1
    29    12    37    1
    30    12    38    1
    31    13    33    1
    32    13    34    1
    33    13    35    1
    34    14    16    1
    35    14    39    1
    36    15    16    2
    37    15    18    1
    38    16    40    1
    39    17    20    1
    40    18    19    2
    41    18    41    1
    42    19    20    1
    43    19    21    1
    44    21    22    1
    45    21    23    1
    46    22    43    1
    47    22    46    1
    48    22    48    1
    49    23    44    1
    50    23    45    1
    51    23    47    1
