@<TRIPOS>MOLECULE
IMPHY017924
 9 8 0 0 0
SMALL
GASTEIGER

@<TRIPOS>ATOM
      1 C           2.3089   -1.3155    0.0000 C.2     1  UNL1        0.3499
      2 C           3.4633   -1.9867    0.0000 C.2     1  UNL1        0.1313
      3 C           4.5909   -1.3155    0.0000 C.1     1  UNL1       -0.0527
      4 C           5.7454   -1.9867    0.0000 C.1     1  UNL1       -0.0636
      5 C           6.8998   -1.3155    0.0000 C.2     1  UNL1        0.0237
      6 C           8.0542   -1.9867    0.0000 C.3     1  UNL1        0.0404
      7 O           2.3089    0.0000    0.0000 O.2     1  UNL1       -0.2442
      8 O           1.1544   -1.9867    0.0000 O.3     1  UNL1       -0.4409
      9 C           0.0000   -1.3155    0.0000 C.3     1  UNL1        0.2560
@<TRIPOS>BOND
     1     1     2    1
     2     1     8    1
     3     1     7    2
     4     2     3    2
     5     3     4    2
     6     4     5    2
     7     5     6    1
     8     8     9    1
