@<TRIPOS>MOLECULE
IMPHY016519
 36 38 0 0 0
SMALL
GASTEIGER

@<TRIPOS>ATOM
      1 O           6.4783   -1.0720    0.0000 O.2     1  UNL1       -0.4672
      2 C           3.8000   -0.7673    0.0000 C.3     1  UNL1       -0.0184
      3 C           3.8000    0.2327    0.0000 C.3     1  UNL1       -0.0103
      4 C           2.9061   -1.3020    0.0000 C.3     1  UNL1       -0.0464
      5 C           4.6660   -1.2673    0.0000 C.3     1  UNL1        0.0117
      6 C           4.6660    0.7327    0.0000 C.3     1  UNL1       -0.0172
      7 C           2.9061    0.7674    0.0000 C.2     1  UNL1       -0.0727
      8 C           2.0000   -0.7881    0.0000 C.3     1  UNL1       -0.0488
      9 C           3.8000   -1.7673    0.0000 C.3     1  UNL1       -0.0586
     10 C           2.0000    0.2535    0.0000 C.3     1  UNL1       -0.0317
     11 C           5.5321    0.2327    0.0000 C.ar    1  UNL1       -0.0030
     12 C           5.5321   -0.7673    0.0000 C.ar    1  UNL1        0.1088
     13 C           6.4783    0.5374    0.0000 C.ar    1  UNL1       -0.0093
     14 C           2.9176    1.7673    0.0000 C.2     1  UNL1       -0.0992
     15 C           7.0619   -0.2673    0.0000 C.ar    1  UNL1        0.0952
     16 C           6.7889    1.4880    0.0000 C.3     1  UNL1       -0.0365
     17 H           3.8066    1.0827    0.0000 H       1  UNL1        0.0354
     18 H           2.5124   -1.7810    0.0000 H       1  UNL1        0.0271
     19 H           3.3107   -1.7718    0.0000 H       1  UNL1        0.0271
     20 H           4.2675   -1.7422    0.0000 H       1  UNL1        0.0349
     21 H           5.0646   -1.7422    0.0000 H       1  UNL1        0.0349
     22 H           5.0646    1.2076    0.0000 H       1  UNL1        0.0320
     23 H           4.2675    1.2076    0.0000 H       1  UNL1        0.0320
     24 H           1.3891   -0.6820    0.0000 H       1  UNL1        0.0268
     25 H           1.7909   -1.3718    0.0000 H       1  UNL1        0.0268
     26 H           3.1800   -1.7673    0.0000 H       1  UNL1        0.0235
     27 H           3.8000   -2.3873    0.0000 H       1  UNL1        0.0235
     28 H           4.4200   -1.7673    0.0000 H       1  UNL1        0.0235
     29 H           1.7909    0.8372    0.0000 H       1  UNL1        0.0310
     30 H           1.3891    0.1474    0.0000 H       1  UNL1        0.0310
     31 H           3.4581    2.0711    0.0000 H       1  UNL1        0.0534
     32 H           2.3843    2.0835    0.0000 H       1  UNL1        0.0534
     33 H           7.6819   -0.2673    0.0000 H       1  UNL1        0.1032
     34 H           7.3783    1.2953    0.0000 H       1  UNL1        0.0279
     35 H           6.9816    2.0773    0.0000 H       1  UNL1        0.0279
     36 H           6.1996    1.6806    0.0000 H       1  UNL1        0.0279
@<TRIPOS>BOND
     1     1    12   ar
     2     1    15   ar
     3     2     3    1
     4     2     4    1
     5     2     5    1
     6     2     9    1
     7     3     6    1
     8     3     7    1
     9     3    17    1
    10     4     8    1
    11     4    18    1
    12     4    19    1
    13     5    12    1
    14     5    20    1
    15     5    21    1
    16     6    11    1
    17     6    22    1
    18     6    23    1
    19     7    10    1
    20     7    14    2
    21     8    10    1
    22     8    24    1
    23     8    25    1
    24     9    26    1
    25     9    27    1
    26     9    28    1
    27    10    29    1
    28    10    30    1
    29    11    12   ar
    30    11    13   ar
    31    13    15   ar
    32    13    16    1
    33    14    31    1
    34    14    32    1
    35    15    33    1
    36    16    34    1
    37    16    35    1
    38    16    36    1
