@<TRIPOS>MOLECULE
IMPHY015868
 24 24 0 0 0
SMALL
GASTEIGER

@<TRIPOS>ATOM
      1 C           2.8090   -0.4806    0.0000 C.3     1  UNL1       -0.0410
      2 C           2.0000   -1.0684    0.0000 C.3     1  UNL1       -0.0502
      3 C           3.6180   -1.0684    0.0000 C.3     1  UNL1       -0.0502
      4 C           2.3090   -2.0194    0.0000 C.3     1  UNL1       -0.0528
      5 C           3.3090   -2.0194    0.0000 C.3     1  UNL1       -0.0528
      6 C           2.8090    0.5194    0.0000 C.3     1  UNL1       -0.0505
      7 C           3.6750    1.0194    0.0000 C.3     1  UNL1       -0.0557
      8 C           3.6750    2.0194    0.0000 C.3     1  UNL1       -0.0653
      9 H           3.3614   -0.1991    0.0000 H       1  UNL1        0.0301
     10 H           1.6900   -0.5314    0.0000 H       1  UNL1        0.0268
     11 H           1.4336   -1.3205    0.0000 H       1  UNL1        0.0268
     12 H           4.1844   -1.3205    0.0000 H       1  UNL1        0.0268
     13 H           3.9280   -0.5314    0.0000 H       1  UNL1        0.0268
     14 H           1.7026   -2.1483    0.0000 H       1  UNL1        0.0265
     15 H           2.3738   -2.6360    0.0000 H       1  UNL1        0.0265
     16 H           3.2442   -2.6360    0.0000 H       1  UNL1        0.0265
     17 H           3.9155   -2.1483    0.0000 H       1  UNL1        0.0265
     18 H           2.5970    1.1020    0.0000 H       1  UNL1        0.0268
     19 H           2.1984    0.4118    0.0000 H       1  UNL1        0.0268
     20 H           3.8871    0.4368    0.0000 H       1  UNL1        0.0263
     21 H           4.2856    1.1271    0.0000 H       1  UNL1        0.0263
     22 H           4.2950    2.0194    0.0000 H       1  UNL1        0.0230
     23 H           3.6750    2.6394    0.0000 H       1  UNL1        0.0230
     24 H           3.0550    2.0194    0.0000 H       1  UNL1        0.0230
@<TRIPOS>BOND
     1     1     2    1
     2     1     3    1
     3     1     6    1
     4     1     9    1
     5     2     4    1
     6     2    10    1
     7     2    11    1
     8     3     5    1
     9     3    12    1
    10     3    13    1
    11     4     5    1
    12     4    14    1
    13     4    15    1
    14     5    16    1
    15     5    17    1
    16     6     7    1
    17     6    18    1
    18     6    19    1
    19     7     8    1
    20     7    20    1
    21     7    21    1
    22     8    22    1
    23     8    23    1
    24     8    24    1
