@<TRIPOS>MOLECULE
IMPHY017726
 16 16 0 0 0
SMALL
GASTEIGER

@<TRIPOS>ATOM
      1 S           3.7320    1.4400    0.0000 S.3     1  UNL1       -0.1736
      2 C           2.8660   -0.0600    0.0000 C.ar    1  UNL1       -0.0378
      3 C           2.8660    0.9400    0.0000 C.3     1  UNL1        0.0158
      4 C           2.0000   -0.5600    0.0000 C.ar    1  UNL1       -0.0578
      5 C           3.7320   -0.5600    0.0000 C.ar    1  UNL1       -0.0578
      6 C           2.0000   -1.5600    0.0000 C.ar    1  UNL1       -0.0615
      7 C           3.7320   -1.5600    0.0000 C.ar    1  UNL1       -0.0615
      8 C           2.8660   -2.0600    0.0000 C.ar    1  UNL1       -0.0617
      9 H           2.6540    1.5226    0.0000 H       1  UNL1        0.0422
     10 H           2.2554    0.8323    0.0000 H       1  UNL1        0.0422
     11 H           1.4631   -0.2500    0.0000 H       1  UNL1        0.0621
     12 H           4.2690   -0.2500    0.0000 H       1  UNL1        0.0621
     13 H           1.4631   -1.8700    0.0000 H       1  UNL1        0.0618
     14 H           4.2690   -1.8700    0.0000 H       1  UNL1        0.0618
     15 H           2.8660   -2.6800    0.0000 H       1  UNL1        0.0618
     16 H           3.7320    2.0600    0.0000 H       1  UNL1        0.1020
@<TRIPOS>BOND
     1     1     3    1
     2     1    16    1
     3     2     3    1
     4     2     4   ar
     5     2     5   ar
     6     3     9    1
     7     3    10    1
     8     4     6   ar
     9     4    11    1
    10     5     7   ar
    11     5    12    1
    12     6     8   ar
    13     6    13    1
    14     7     8   ar
    15     7    14    1
    16     8    15    1
