@<TRIPOS>MOLECULE
IMPHY003735
 106 112 0 0 0
SMALL
GASTEIGER

@<TRIPOS>ATOM
      1 O          11.1496    2.1607    0.0000 O.3     1  UNL1       -0.3874
      2 O           9.4651   -3.2702    0.0000 O.3     1  UNL1       -0.3454
      3 O           8.7608    6.6785    0.0000 O.3     1  UNL1       -0.4571
      4 O           7.7331   -3.2702    0.0000 O.3     1  UNL1       -0.3431
      5 O           9.4651   -5.2702    0.0000 O.3     1  UNL1       -0.3841
      6 O           6.9812    6.7702    0.0000 O.2     1  UNL1       -0.2456
      7 O           7.7331   -6.2702    0.0000 O.3     1  UNL1       -0.3744
      8 O           6.0010   -5.2702    0.0000 O.3     1  UNL1       -0.3402
      9 O           5.1350   -3.7702    0.0000 O.3     1  UNL1       -0.3405
     10 O           4.2690   -6.2702    0.0000 O.3     1  UNL1       -0.3841
     11 O           2.5369   -5.2702    0.0000 O.3     1  UNL1       -0.3864
     12 O           2.5369   -3.2702    0.0000 O.3     1  UNL1       -0.3865
     13 O           5.1350   -1.7702    0.0000 O.3     1  UNL1       -0.3924
     14 C           9.4929    0.7989    0.0000 C.3     1  UNL1       -0.0290
     15 C          10.3609    1.2956    0.0000 C.3     1  UNL1       -0.0079
     16 C           9.4891   -0.2010    0.0000 C.3     1  UNL1       -0.0259
     17 C          10.1554    2.2682    0.0000 C.3     1  UNL1        0.0782
     18 C           9.1671    2.3751    0.0000 C.3     1  UNL1        0.0185
     19 C           8.7585    1.4689    0.0000 C.3     1  UNL1       -0.0376
     20 C          10.3532   -0.7044    0.0000 C.3     1  UNL1       -0.0330
     21 C          11.2250    0.7923    0.0000 C.3     1  UNL1       -0.0470
     22 C          11.2211   -0.2077    0.0000 C.3     1  UNL1       -0.0493
     23 C          10.7794    3.0946    0.0000 C.3     1  UNL1       -0.0221
     24 C           8.5771   -0.7044    0.0000 C.3     1  UNL1       -0.0448
     25 C           8.7342    3.3157    0.0000 C.2     1  UNL1       -0.0608
     26 C          10.3652   -1.7459    0.0000 C.3     1  UNL1       -0.0232
     27 C           8.6250    0.3023    0.0000 C.3     1  UNL1       -0.0590
     28 C           8.1729    2.4826    0.0000 C.3     1  UNL1       -0.0532
     29 C           9.3389    4.1563    0.0000 C.3     1  UNL1        0.0053
     30 C          10.3683    4.0450    0.0000 C.3     1  UNL1       -0.0400
     31 C           8.5651   -1.7459    0.0000 C.3     1  UNL1       -0.0260
     32 C           9.4651   -2.2702    0.0000 C.3     1  UNL1        0.0621
     33 C           7.7388    3.4117    0.0000 C.2     1  UNL1       -0.0983
     34 C           8.9314    5.0695    0.0000 C.2     1  UNL1       -0.0188
     35 C           9.4306    5.9359    0.0000 C.3     1  UNL1        0.1150
     36 C           8.5991   -3.7702    0.0000 C.3     1  UNL1        0.1881
     37 C           7.9530    5.2766    0.0000 C.2     1  UNL1        0.0255
     38 C           8.5991   -4.7702    0.0000 C.3     1  UNL1        0.1344
     39 C           7.8476    6.2710    0.0000 C.2     1  UNL1        0.3323
     40 C           7.7331   -5.2702    0.0000 C.3     1  UNL1        0.1174
     41 C           6.8671   -3.7702    0.0000 C.3     1  UNL1        0.0877
     42 C           6.8671   -4.7702    0.0000 C.3     1  UNL1        0.1162
     43 C           6.0010   -3.2702    0.0000 C.3     1  UNL1       -0.0360
     44 C           5.1350   -4.7702    0.0000 C.3     1  UNL1        0.1884
     45 C           8.5991   -6.7702    0.0000 C.3     1  UNL1        0.0370
     46 C           4.2690   -5.2702    0.0000 C.3     1  UNL1        0.1341
     47 C           3.4030   -4.7702    0.0000 C.3     1  UNL1        0.1141
     48 C           4.2690   -3.2702    0.0000 C.3     1  UNL1        0.1130
     49 C           3.4030   -3.7702    0.0000 C.3     1  UNL1        0.1119
     50 C           4.2690   -2.2702    0.0000 C.3     1  UNL1        0.0730
     51 H          10.2274    0.3711    0.0000 H       1  UNL1        0.0310
     52 H          11.0498    1.7935    0.0000 H       1  UNL1        0.0332
     53 H           8.2232    1.7817    0.0000 H       1  UNL1        0.0277
     54 H           8.3911    0.9694    0.0000 H       1  UNL1        0.0277
     55 H          11.0909   -1.1265    0.0000 H       1  UNL1        0.0307
     56 H          11.8351    0.6823    0.0000 H       1  UNL1        0.0269
     57 H          11.4393    1.3741    0.0000 H       1  UNL1        0.0269
     58 H          11.4309   -0.7911    0.0000 H       1  UNL1        0.0268
     59 H          11.8321   -0.1024    0.0000 H       1  UNL1        0.0268
     60 H          11.2029    2.6418    0.0000 H       1  UNL1        0.0293
     61 H          11.2979    3.4344    0.0000 H       1  UNL1        0.0293
     62 H           8.3748   -0.1183    0.0000 H       1  UNL1        0.0271
     63 H           7.9651   -0.8034    0.0000 H       1  UNL1        0.0271
     64 H          10.5810   -2.3272    0.0000 H       1  UNL1        0.0293
     65 H          10.9748   -1.6328    0.0000 H       1  UNL1        0.0293
     66 H           8.9370    0.8380    0.0000 H       1  UNL1        0.0235
     67 H           8.0892    0.6144    0.0000 H       1  UNL1        0.0235
     68 H           8.3129   -0.2334    0.0000 H       1  UNL1        0.0235
     69 H           8.2395    3.0990    0.0000 H       1  UNL1        0.0239
     70 H           7.5565    2.5492    0.0000 H       1  UNL1        0.0239
     71 H           8.1062    1.8662    0.0000 H       1  UNL1        0.0239
     72 H           8.7221    4.2194    0.0000 H       1  UNL1        0.0392
     73 H          10.9711    4.1901    0.0000 H       1  UNL1        0.0275
     74 H          10.3285    4.6637    0.0000 H       1  UNL1        0.0275
     75 H           7.9555   -1.6328    0.0000 H       1  UNL1        0.0290
     76 H           8.3493   -2.3272    0.0000 H       1  UNL1        0.0290
     77 H          10.0027   -2.5792    0.0000 H       1  UNL1        0.0597
     78 H          11.5155    2.6612    0.0000 H       1  UNL1        0.2102
     79 H           7.4818    3.9759    0.0000 H       1  UNL1        0.0535
     80 H           7.3787    2.9070    0.0000 H       1  UNL1        0.0535
     81 H           9.9325    5.5720    0.0000 H       1  UNL1        0.0746
     82 H           9.8451    6.3970    0.0000 H       1  UNL1        0.0746
     83 H           8.5991   -3.1502    0.0000 H       1  UNL1        0.0937
     84 H           7.4926    4.8613    0.0000 H       1  UNL1        0.0690
     85 H           8.5991   -5.3902    0.0000 H       1  UNL1        0.0671
     86 H           7.1962   -5.5802    0.0000 H       1  UNL1        0.0650
     87 H           6.8671   -3.1502    0.0000 H       1  UNL1        0.0621
     88 H           6.3301   -4.4602    0.0000 H       1  UNL1        0.0650
     89 H          10.0021   -4.9602    0.0000 H       1  UNL1        0.2101
     90 H           6.3110   -2.7333    0.0000 H       1  UNL1        0.0255
     91 H           5.4641   -2.9602    0.0000 H       1  UNL1        0.0255
     92 H           5.6910   -3.8072    0.0000 H       1  UNL1        0.0255
     93 H           5.1350   -5.3902    0.0000 H       1  UNL1        0.0938
     94 H           8.2891   -7.3072    0.0000 H       1  UNL1        0.0524
     95 H           9.1360   -7.0802    0.0000 H       1  UNL1        0.0524
     96 H           8.9091   -6.2333    0.0000 H       1  UNL1        0.0524
     97 H           3.7320   -5.5802    0.0000 H       1  UNL1        0.0671
     98 H           2.8660   -4.4602    0.0000 H       1  UNL1        0.0648
     99 H           4.8059   -2.9602    0.0000 H       1  UNL1        0.0647
    100 H           3.4030   -3.1502    0.0000 H       1  UNL1        0.0647
    101 H           3.7320   -6.5802    0.0000 H       1  UNL1        0.2101
    102 H           4.0569   -1.6876    0.0000 H       1  UNL1        0.0584
    103 H           3.6584   -2.3779    0.0000 H       1  UNL1        0.0584
    104 H           2.0000   -4.9602    0.0000 H       1  UNL1        0.2100
    105 H           2.5369   -2.6502    0.0000 H       1  UNL1        0.2100
    106 H           5.1350   -1.1502    0.0000 H       1  UNL1        0.2095
@<TRIPOS>BOND
     1    17     1    1
     2     1    78    1
     3    32     2    1
     4    36     2    1
     5     3    35    1
     6     3    39    1
     7     4    36    1
     8     4    41    1
     9    38     5    1
    10     5    89    1
    11     6    39    2
    12    40     7    1
    13     7    45    1
    14    42     8    1
    15    44     8    1
    16     9    44    1
    17     9    48    1
    18    46    10    1
    19    10   101    1
    20    47    11    1
    21    11   104    1
    22    49    12    1
    23    12   105    1
    24    13    50    1
    25    13   106    1
    26    14    15    1
    27    14    16    1
    28    14    19    1
    29    14    51    1
    30    15    17    1
    31    15    21    1
    32    15    52    1
    33    16    20    1
    34    16    24    1
    35    16    27    1
    36    17    18    1
    37    17    23    1
    38    18    19    1
    39    18    25    1
    40    18    28    1
    41    19    53    1
    42    19    54    1
    43    20    22    1
    44    20    26    1
    45    20    55    1
    46    21    22    1
    47    21    56    1
    48    21    57    1
    49    22    58    1
    50    22    59    1
    51    23    30    1
    52    23    60    1
    53    23    61    1
    54    24    31    1
    55    24    62    1
    56    24    63    1
    57    25    29    1
    58    25    33    2
    59    26    32    1
    60    26    64    1
    61    26    65    1
    62    27    66    1
    63    27    67    1
    64    27    68    1
    65    28    69    1
    66    28    70    1
    67    28    71    1
    68    29    30    1
    69    29    34    1
    70    29    72    1
    71    30    73    1
    72    30    74    1
    73    31    32    1
    74    31    75    1
    75    31    76    1
    76    32    77    1
    77    33    79    1
    78    33    80    1
    79    34    35    1
    80    34    37    2
    81    35    81    1
    82    35    82    1
    83    36    38    1
    84    36    83    1
    85    37    39    1
    86    37    84    1
    87    38    40    1
    88    38    85    1
    89    40    42    1
    90    40    86    1
    91    41    42    1
    92    41    43    1
    93    41    87    1
    94    42    88    1
    95    43    90    1
    96    43    91    1
    97    43    92    1
    98    44    46    1
    99    44    93    1
   100    45    94    1
   101    45    95    1
   102    45    96    1
   103    46    47    1
   104    46    97    1
   105    47    49    1
   106    47    98    1
   107    48    49    1
   108    48    50    1
   109    48    99    1
   110    49   100    1
   111    50   102    1
   112    50   103    1
