@<TRIPOS>MOLECULE
IMPHY007738
 36 38 0 0 0
SMALL
GASTEIGER

@<TRIPOS>ATOM
      1 O           6.7889    1.7726    0.0000 O.3     1  UNL1       -0.3866
      2 O           2.0000   -0.5035    0.0000 O.3     1  UNL1       -0.4608
      3 O           2.9176   -2.0173    0.0000 O.2     1  UNL1       -0.2450
      4 C           7.0619    0.0173    0.0000 C.3     1  UNL1       -0.0008
      5 C           6.4783    0.8220    0.0000 C.3     1  UNL1        0.0861
      6 C           6.4783   -0.7874    0.0000 C.3     1  UNL1       -0.0195
      7 C           5.5321    0.5173    0.0000 C.ar    1  UNL1       -0.0122
      8 C           5.5321   -0.4827    0.0000 C.ar    1  UNL1       -0.0401
      9 C           7.8709   -0.5705    0.0000 C.3     1  UNL1       -0.0568
     10 C           7.8709    0.6051    0.0000 C.3     1  UNL1       -0.0568
     11 C           4.6660    1.0173    0.0000 C.ar    1  UNL1       -0.0405
     12 C           3.8000    0.5173    0.0000 C.ar    1  UNL1       -0.0269
     13 C           4.6660   -0.9827    0.0000 C.ar    1  UNL1       -0.0439
     14 C           3.8000   -0.4827    0.0000 C.ar    1  UNL1        0.0628
     15 C           2.9061    1.0520    0.0000 C.3     1  UNL1        0.0078
     16 C           4.6660    2.0173    0.0000 C.3     1  UNL1       -0.0391
     17 C           2.0000    0.5381    0.0000 C.3     1  UNL1        0.0968
     18 C           2.9061   -1.0174    0.0000 C.2     1  UNL1        0.3395
     19 H           7.0908    0.9182    0.0000 H       1  UNL1        0.0649
     20 H           6.2272   -1.3543    0.0000 H       1  UNL1        0.0319
     21 H           7.0157   -1.0967    0.0000 H       1  UNL1        0.0319
     22 H           8.2353    0.1035    0.0000 H       1  UNL1        0.0236
     23 H           7.5065   -1.0721    0.0000 H       1  UNL1        0.0236
     24 H           8.3725   -0.9349    0.0000 H       1  UNL1        0.0236
     25 H           8.2353   -0.0689    0.0000 H       1  UNL1        0.0236
     26 H           8.3725    0.9695    0.0000 H       1  UNL1        0.0236
     27 H           7.5065    1.1067    0.0000 H       1  UNL1        0.0236
     28 H           4.6660   -1.6027    0.0000 H       1  UNL1        0.0629
     29 H           3.3107    1.5218    0.0000 H       1  UNL1        0.0346
     30 H           2.5124    1.5310    0.0000 H       1  UNL1        0.0346
     31 H           7.3956    1.9004    0.0000 H       1  UNL1        0.2103
     32 H           5.2860    2.0173    0.0000 H       1  UNL1        0.0278
     33 H           4.6660    2.6373    0.0000 H       1  UNL1        0.0278
     34 H           4.0460    2.0173    0.0000 H       1  UNL1        0.0278
     35 H           1.7909    1.1218    0.0000 H       1  UNL1        0.0701
     36 H           1.3891    0.4320    0.0000 H       1  UNL1        0.0701
@<TRIPOS>BOND
     1     1     5    1
     2     1    31    1
     3     2    17    1
     4     2    18    1
     5     3    18    2
     6     4     5    1
     7     4     6    1
     8     4     9    1
     9     4    10    1
    10     5     7    1
    11     5    19    1
    12     6     8    1
    13     6    20    1
    14     6    21    1
    15     7     8   ar
    16     7    11   ar
    17     8    13   ar
    18     9    23    1
    19     9    24    1
    20     9    25    1
    21    10    22    1
    22    10    26    1
    23    10    27    1
    24    11    12   ar
    25    11    16    1
    26    12    14   ar
    27    12    15    1
    28    13    14   ar
    29    13    28    1
    30    14    18    1
    31    15    17    1
    32    15    29    1
    33    15    30    1
    34    16    32    1
    35    16    33    1
    36    16    34    1
    37    17    35    1
    38    17    36    1
