@<TRIPOS>MOLECULE
IMPHY006818
 47 51 0 0 0
SMALL
GASTEIGER

@<TRIPOS>ATOM
      1 O           2.1153    1.9144    0.0000 O.3     1  UNL1       -0.4523
      2 O           2.9423    3.3727    0.0000 O.3     1  UNL1       -0.4526
      3 O           7.6940   -0.7044    0.0000 O.3     1  UNL1       -0.4914
      4 O           7.6940   -2.7527    0.0000 O.3     1  UNL1       -0.5033
      5 N           3.2978   -1.2285    0.0000 N.3     1  UNL1       -0.2915
      6 C           4.1639   -0.7285    0.0000 C.3     1  UNL1        0.0767
      7 C           3.3548   -0.1407    0.0000 C.3     1  UNL1        0.0033
      8 C           5.0299   -1.2285    0.0000 C.ar    1  UNL1       -0.0156
      9 C           4.9729   -0.1407    0.0000 C.2     1  UNL1       -0.0220
     10 C           3.6639    0.8103    0.0000 C.ar    1  UNL1        0.0079
     11 C           3.2978   -2.2285    0.0000 C.3     1  UNL1        0.0037
     12 C           4.6639    0.8103    0.0000 C.ar    1  UNL1       -0.0134
     13 C           5.0299   -2.2285    0.0000 C.ar    1  UNL1       -0.0372
     14 C           4.1639   -2.7285    0.0000 C.3     1  UNL1       -0.0144
     15 C           2.4318   -0.7285    0.0000 C.3     1  UNL1       -0.0116
     16 C           3.1292    1.7043    0.0000 C.ar    1  UNL1        0.1700
     17 C           5.9238   -0.6939    0.0000 C.ar    1  UNL1       -0.0108
     18 C           5.1985    1.7043    0.0000 C.ar    1  UNL1       -0.0503
     19 C           5.9238   -2.7632    0.0000 C.ar    1  UNL1       -0.0130
     20 C           5.7160    0.5284    0.0000 C.2     1  UNL1       -0.0928
     21 C           3.6430    2.6103    0.0000 C.ar    1  UNL1        0.1665
     22 C           6.8299   -1.2077    0.0000 C.ar    1  UNL1        0.1616
     23 C           4.6847    2.6103    0.0000 C.ar    1  UNL1       -0.0156
     24 C           6.8299   -2.2493    0.0000 C.ar    1  UNL1        0.1587
     25 C           2.0000    2.9434    0.0000 C.3     1  UNL1        0.2332
     26 C           8.5619   -1.2010    0.0000 C.3     1  UNL1        0.0790
     27 H           2.7884    0.1114    0.0000 H       1  UNL1        0.0339
     28 H           3.0448   -0.6777    0.0000 H       1  UNL1        0.0339
     29 H           2.6873   -2.1208    0.0000 H       1  UNL1        0.0430
     30 H           3.0858   -2.8111    0.0000 H       1  UNL1        0.0430
     31 H           3.7653   -3.2035    0.0000 H       1  UNL1        0.0326
     32 H           4.5624   -3.2035    0.0000 H       1  UNL1        0.0326
     33 H           2.7418   -0.1916    0.0000 H       1  UNL1        0.0391
     34 H           1.8949   -0.4185    0.0000 H       1  UNL1        0.0391
     35 H           2.1218   -1.2654    0.0000 H       1  UNL1        0.0391
     36 H           5.9167   -0.0739    0.0000 H       1  UNL1        0.0659
     37 H           5.8185    1.6971    0.0000 H       1  UNL1        0.0625
     38 H           5.9167   -3.3831    0.0000 H       1  UNL1        0.0658
     39 H           6.3057    0.3368    0.0000 H       1  UNL1        0.0538
     40 H           5.5871    1.1349    0.0000 H       1  UNL1        0.0538
     41 H           4.9967    3.1461    0.0000 H       1  UNL1        0.0655
     42 H           1.8037    3.5315    0.0000 H       1  UNL1        0.1166
     43 H           1.3945    2.8100    0.0000 H       1  UNL1        0.1166
     44 H           7.6916   -3.3727    0.0000 H       1  UNL1        0.2923
     45 H           8.2540   -1.7392    0.0000 H       1  UNL1        0.0660
     46 H           9.1001   -1.5090    0.0000 H       1  UNL1        0.0660
     47 H           8.8699   -0.6629    0.0000 H       1  UNL1        0.0660
@<TRIPOS>BOND
     1     1    16    1
     2     1    25    1
     3     2    21    1
     4     2    25    1
     5     3    22    1
     6     3    26    1
     7     4    24    1
     8     4    44    1
     9     6     5    1
    10     5    11    1
    11     5    15    1
    12     6     7    1
    13     6     8    1
    14     6     9    1
    15     7    10    1
    16     7    27    1
    17     7    28    1
    18     8    13   ar
    19     8    17   ar
    20     9    12    1
    21     9    20    2
    22    10    12   ar
    23    10    16   ar
    24    11    14    1
    25    11    29    1
    26    11    30    1
    27    12    18   ar
    28    13    14    1
    29    13    19   ar
    30    14    31    1
    31    14    32    1
    32    15    33    1
    33    15    34    1
    34    15    35    1
    35    16    21   ar
    36    17    22   ar
    37    17    36    1
    38    18    23   ar
    39    18    37    1
    40    19    24   ar
    41    19    38    1
    42    20    39    1
    43    20    40    1
    44    21    23   ar
    45    22    24   ar
    46    23    41    1
    47    25    42    1
    48    25    43    1
    49    26    45    1
    50    26    46    1
    51    26    47    1
