@<TRIPOS>MOLECULE
IMPHY002615
 37 39 0 0 0
SMALL
GASTEIGER

@<TRIPOS>ATOM
      1 O           6.4783   -1.3047    0.0000 O.3     1  UNL1       -0.4572
      2 O           8.0619   -0.5000    0.0000 O.2     1  UNL1       -0.2453
      3 C           3.8000    0.0000    0.0000 C.3     1  UNL1       -0.0077
      4 C           4.6660    0.5000    0.0000 C.3     1  UNL1       -0.0332
      5 C           2.9061    0.5347    0.0000 C.3     1  UNL1       -0.0345
      6 C           5.5321    0.0000    0.0000 C.3     1  UNL1        0.0285
      7 C           3.8000   -1.0000    0.0000 C.2     1  UNL1       -0.0638
      8 C           5.5321   -1.0000    0.0000 C.3     1  UNL1        0.1140
      9 C           4.6660   -1.5000    0.0000 C.3     1  UNL1        0.0067
     10 C           2.0000    0.0208    0.0000 C.3     1  UNL1       -0.0462
     11 C           3.8000    1.0000    0.0000 C.3     1  UNL1       -0.0556
     12 C           2.0000   -1.0208    0.0000 C.3     1  UNL1       -0.0342
     13 C           2.9061   -1.5346    0.0000 C.2     1  UNL1       -0.0841
     14 C           6.4783    0.3048    0.0000 C.2     1  UNL1        0.0361
     15 C           2.9176    1.5346    0.0000 C.3     1  UNL1       -0.0616
     16 C           7.0619   -0.5000    0.0000 C.2     1  UNL1        0.3353
     17 C           6.7889    1.2553    0.0000 C.2     1  UNL1       -0.0883
     18 H           5.0646    0.9750    0.0000 H       1  UNL1        0.0281
     19 H           4.2675    0.9750    0.0000 H       1  UNL1        0.0281
     20 H           2.3721    0.8499    0.0000 H       1  UNL1        0.0307
     21 H           5.6220    0.8453    0.0000 H       1  UNL1        0.0387
     22 H           5.6220   -1.8452    0.0000 H       1  UNL1        0.0743
     23 H           4.2675   -1.9749    0.0000 H       1  UNL1        0.0346
     24 H           5.0646   -1.9749    0.0000 H       1  UNL1        0.0346
     25 H           1.7909    0.6045    0.0000 H       1  UNL1        0.0271
     26 H           1.3891   -0.0852    0.0000 H       1  UNL1        0.0271
     27 H           4.4200    1.0000    0.0000 H       1  UNL1        0.0238
     28 H           3.8000    1.6200    0.0000 H       1  UNL1        0.0238
     29 H           3.1800    1.0000    0.0000 H       1  UNL1        0.0238
     30 H           1.3891   -0.9147    0.0000 H       1  UNL1        0.0307
     31 H           1.7909   -1.6045    0.0000 H       1  UNL1        0.0307
     32 H           2.9132   -2.1546    0.0000 H       1  UNL1        0.0572
     33 H           3.5376    1.5275    0.0000 H       1  UNL1        0.0233
     34 H           2.9248    2.1546    0.0000 H       1  UNL1        0.0233
     35 H           2.2977    1.5418    0.0000 H       1  UNL1        0.0233
     36 H           7.3956    1.3831    0.0000 H       1  UNL1        0.0540
     37 H           6.3749    1.7168    0.0000 H       1  UNL1        0.0540
@<TRIPOS>BOND
     1     1     8    1
     2     1    16    1
     3     2    16    2
     4     3     4    1
     5     3     5    1
     6     3     7    1
     7     3    11    1
     8     4     6    1
     9     4    18    1
    10     4    19    1
    11     5    10    1
    12     5    15    1
    13     5    20    1
    14     6     8    1
    15     6    14    1
    16     6    21    1
    17     7     9    1
    18     7    13    2
    19     8     9    1
    20     8    22    1
    21     9    23    1
    22     9    24    1
    23    10    12    1
    24    10    25    1
    25    10    26    1
    26    11    27    1
    27    11    28    1
    28    11    29    1
    29    12    13    1
    30    12    30    1
    31    12    31    1
    32    13    32    1
    33    14    16    1
    34    14    17    2
    35    15    33    1
    36    15    34    1
    37    15    35    1
    38    17    36    1
    39    17    37    1
