@<TRIPOS>MOLECULE
IMPHY016067
 32 31 0 0 0
SMALL
GASTEIGER

@<TRIPOS>ATOM
      1 O           2.0000    0.6900    0.0000 O.2     1  UNL1       -0.3010
      2 C           6.3301    0.1900    0.0000 C.3     1  UNL1       -0.0528
      3 C           5.4641    0.6900    0.0000 C.3     1  UNL1       -0.0527
      4 C           7.1962    0.6900    0.0000 C.3     1  UNL1       -0.0496
      5 C           4.5981    0.1900    0.0000 C.3     1  UNL1       -0.0466
      6 C           8.0622    0.1900    0.0000 C.3     1  UNL1       -0.0348
      7 C           3.7320    0.6900    0.0000 C.3     1  UNL1        0.0028
      8 C           8.9282    0.6900    0.0000 C.2     1  UNL1       -0.0879
      9 C           9.7942    0.1900    0.0000 C.2     1  UNL1       -0.0882
     10 C           2.8660    0.1900    0.0000 C.2     1  UNL1        0.1203
     11 C           9.7942   -0.8100    0.0000 C.3     1  UNL1       -0.0376
     12 C          10.6603   -1.3100    0.0000 C.3     1  UNL1       -0.0618
     13 H           5.9316   -0.2849    0.0000 H       1  UNL1        0.0265
     14 H           6.7287   -0.2849    0.0000 H       1  UNL1        0.0265
     15 H           5.8626    1.1650    0.0000 H       1  UNL1        0.0265
     16 H           5.0656    1.1650    0.0000 H       1  UNL1        0.0265
     17 H           7.5947    1.1650    0.0000 H       1  UNL1        0.0268
     18 H           6.7976    1.1650    0.0000 H       1  UNL1        0.0268
     19 H           4.1996   -0.2849    0.0000 H       1  UNL1        0.0269
     20 H           4.9966   -0.2849    0.0000 H       1  UNL1        0.0269
     21 H           7.6636   -0.2849    0.0000 H       1  UNL1        0.0307
     22 H           8.4607   -0.2849    0.0000 H       1  UNL1        0.0307
     23 H           4.1306    1.1650    0.0000 H       1  UNL1        0.0339
     24 H           3.3335    1.1650    0.0000 H       1  UNL1        0.0339
     25 H           8.9282    1.3100    0.0000 H       1  UNL1        0.0569
     26 H          10.3312    0.5000    0.0000 H       1  UNL1        0.0569
     27 H           2.8660   -0.4300    0.0000 H       1  UNL1        0.1026
     28 H           9.1836   -0.7023    0.0000 H       1  UNL1        0.0305
     29 H           9.5822   -1.3926    0.0000 H       1  UNL1        0.0305
     30 H          10.3503   -1.8469    0.0000 H       1  UNL1        0.0233
     31 H          11.1972   -1.6200    0.0000 H       1  UNL1        0.0233
     32 H          10.9703   -0.7731    0.0000 H       1  UNL1        0.0233
@<TRIPOS>BOND
     1     1    10    2
     2     2     3    1
     3     2     4    1
     4     2    13    1
     5     2    14    1
     6     3     5    1
     7     3    15    1
     8     3    16    1
     9     4     6    1
    10     4    17    1
    11     4    18    1
    12     5     7    1
    13     5    19    1
    14     5    20    1
    15     6     8    1
    16     6    21    1
    17     6    22    1
    18     7    10    1
    19     7    23    1
    20     7    24    1
    21     8     9    2
    22     8    25    1
    23     9    11    1
    24     9    26    1
    25    10    27    1
    26    11    12    1
    27    11    28    1
    28    11    29    1
    29    12    30    1
    30    12    31    1
    31    12    32    1
