@<TRIPOS>MOLECULE
IMPHY017132
 21 21 0 0 0
SMALL
GASTEIGER

@<TRIPOS>ATOM
      1 C           2.8090    0.0194    0.0000 C.3     1  UNL1       -0.0413
      2 C           2.0000   -0.5684    0.0000 C.3     1  UNL1       -0.0502
      3 C           3.6180   -0.5684    0.0000 C.3     1  UNL1       -0.0502
      4 C           2.3090   -1.5194    0.0000 C.3     1  UNL1       -0.0528
      5 C           3.3090   -1.5194    0.0000 C.3     1  UNL1       -0.0528
      6 C           2.8090    1.0194    0.0000 C.3     1  UNL1       -0.0531
      7 C           3.6750    1.5194    0.0000 C.3     1  UNL1       -0.0650
      8 H           3.3614    0.3009    0.0000 H       1  UNL1        0.0301
      9 H           1.6900   -0.0314    0.0000 H       1  UNL1        0.0268
     10 H           1.4336   -0.8205    0.0000 H       1  UNL1        0.0268
     11 H           4.1844   -0.8205    0.0000 H       1  UNL1        0.0268
     12 H           3.9280   -0.0314    0.0000 H       1  UNL1        0.0268
     13 H           1.7026   -1.6483    0.0000 H       1  UNL1        0.0265
     14 H           2.3738   -2.1360    0.0000 H       1  UNL1        0.0265
     15 H           3.2442   -2.1360    0.0000 H       1  UNL1        0.0265
     16 H           3.9155   -1.6483    0.0000 H       1  UNL1        0.0265
     17 H           2.5970    1.6020    0.0000 H       1  UNL1        0.0265
     18 H           2.1984    0.9118    0.0000 H       1  UNL1        0.0265
     19 H           3.9850    0.9825    0.0000 H       1  UNL1        0.0230
     20 H           4.2120    1.8294    0.0000 H       1  UNL1        0.0230
     21 H           3.3650    2.0564    0.0000 H       1  UNL1        0.0230
@<TRIPOS>BOND
     1     1     2    1
     2     1     3    1
     3     1     6    1
     4     1     8    1
     5     2     4    1
     6     2     9    1
     7     2    10    1
     8     3     5    1
     9     3    11    1
    10     3    12    1
    11     4     5    1
    12     4    13    1
    13     4    14    1
    14     5    15    1
    15     5    16    1
    16     6     7    1
    17     6    17    1
    18     6    18    1
    19     7    19    1
    20     7    20    1
    21     7    21    1
