@<TRIPOS>MOLECULE
IMPHY017150
 37 39 0 0 0
SMALL
GASTEIGER

@<TRIPOS>ATOM
      1 O           2.5807    0.1055    0.0000 O.3     1  UNL1       -0.3680
      2 O           4.0826   -2.1518    0.0000 O.2     1  UNL1       -0.4652
      3 C           5.1073    2.2193    0.0000 C.3     1  UNL1       -0.0291
      4 C           4.3707    1.2367    0.0000 C.3     1  UNL1       -0.0083
      5 C           4.6295    0.2708    0.0000 C.3     1  UNL1        0.0161
      6 C           6.4039    0.9256    0.0000 C.3     1  UNL1       -0.0203
      7 C           3.3578   -0.5238    0.0000 C.3     1  UNL1        0.1227
      8 C           2.9391    1.0391    0.0000 C.3     1  UNL1        0.0522
      9 C           5.8505   -0.5949    0.0000 C.2     1  UNL1       -0.0700
     10 C           6.6796   -0.0357    0.0000 C.2     1  UNL1       -0.0815
     11 C           5.6073    3.0854    0.0000 C.3     1  UNL1       -0.0614
     12 C           7.0196    1.7136    0.0000 C.3     1  UNL1       -0.0586
     13 C           3.3055   -1.5225    0.0000 C.ar    1  UNL1        0.1340
     14 C           5.8156   -1.5942    0.0000 C.3     1  UNL1       -0.0434
     15 C           2.4668   -2.0671    0.0000 C.ar    1  UNL1       -0.0181
     16 C           2.7256   -3.0330    0.0000 C.ar    1  UNL1       -0.0236
     17 C           3.7243   -3.0854    0.0000 C.ar    1  UNL1        0.0922
     18 H           4.5899    2.5609    0.0000 H       1  UNL1        0.0308
     19 H           4.1507    2.0578    0.0000 H       1  UNL1        0.0331
     20 H           4.8495   -0.5502    0.0000 H       1  UNL1        0.0378
     21 H           7.0126    0.8073    0.0000 H       1  UNL1        0.0344
     22 H           2.7914   -0.7760    0.0000 H       1  UNL1        0.0683
     23 H           2.3312    1.1614    0.0000 H       1  UNL1        0.0563
     24 H           2.9581    1.6588    0.0000 H       1  UNL1        0.0563
     25 H           7.2622   -0.2477    0.0000 H       1  UNL1        0.0574
     26 H           5.0704    3.3954    0.0000 H       1  UNL1        0.0233
     27 H           5.9173    3.6223    0.0000 H       1  UNL1        0.0233
     28 H           6.1443    2.7754    0.0000 H       1  UNL1        0.0233
     29 H           6.5310    2.0953    0.0000 H       1  UNL1        0.0235
     30 H           7.4013    2.2022    0.0000 H       1  UNL1        0.0235
     31 H           7.5082    1.3319    0.0000 H       1  UNL1        0.0235
     32 H           6.4353   -1.6159    0.0000 H       1  UNL1        0.0274
     33 H           5.7940   -2.2139    0.0000 H       1  UNL1        0.0274
     34 H           5.1960   -1.5726    0.0000 H       1  UNL1        0.0274
     35 H           1.8880   -1.8449    0.0000 H       1  UNL1        0.0653
     36 H           2.3355   -3.5149    0.0000 H       1  UNL1        0.0649
     37 H           4.0620   -3.6053    0.0000 H       1  UNL1        0.1029
@<TRIPOS>BOND
     1     1     7    1
     2     1     8    1
     3     2    13   ar
     4     2    17   ar
     5     3     4    1
     6     3     5    1
     7     3    11    1
     8     3    18    1
     9     4     6    1
    10     4     8    1
    11     4    19    1
    12     5     7    1
    13     5     9    1
    14     5    20    1
    15     6    10    1
    16     6    12    1
    17     6    21    1
    18     7    13    1
    19     7    22    1
    20     8    23    1
    21     8    24    1
    22     9    10    2
    23     9    14    1
    24    10    25    1
    25    11    26    1
    26    11    27    1
    27    11    28    1
    28    12    29    1
    29    12    30    1
    30    12    31    1
    31    13    15   ar
    32    14    32    1
    33    14    33    1
    34    14    34    1
    35    15    16   ar
    36    15    35    1
    37    16    17   ar
    38    16    36    1
    39    17    37    1
