@<TRIPOS>MOLECULE
IMPHY010625
 35 39 0 0 0
SMALL
GASTEIGER

@<TRIPOS>ATOM
      1 C           9.2378   -1.1638    0.0000 C.3     1  UNL1       -0.0003
      2 C           8.0844   -1.8289    0.0000 C.3     1  UNL1       -0.0039
      3 C           8.0844   -3.1589    0.0000 C.3     1  UNL1       -0.0167
      4 C           6.9309   -3.8344    0.0000 C.3     1  UNL1        0.0270
      5 C           6.9309   -5.1644    0.0000 C.3     1  UNL1       -0.0013
      6 C           5.7775   -5.8295    0.0000 C.3     1  UNL1       -0.0193
      7 C           4.6241   -5.1644    0.0000 C.3     1  UNL1       -0.0067
      8 C           3.4707   -5.8295    0.0000 C.3     1  UNL1       -0.0185
      9 C           3.4707   -7.1595    0.0000 C.3     1  UNL1        0.0031
     10 C           4.6241   -7.8246    0.0000 C.3     1  UNL1       -0.0002
     11 C           5.7775   -7.1595    0.0000 C.3     1  UNL1       -0.0039
     12 C          10.3912   -1.8289    0.0000 C.3     1  UNL1       -0.0000
     13 C          10.3912   -3.1589    0.0000 C.3     1  UNL1       -0.0003
     14 C           9.2378   -3.8344    0.0000 C.3     1  UNL1       -0.0033
     15 C           9.2378   -5.1644    0.0000 C.3     1  UNL1       -0.0003
     16 C           8.0844   -5.8295    0.0000 C.3     1  UNL1       -0.0002
     17 C           5.7775   -3.1589    0.0000 C.3     1  UNL1        0.0022
     18 C           4.6241   -3.8344    0.0000 C.3     1  UNL1       -0.0005
     19 C           2.3068   -5.1644    0.0000 C.3     1  UNL1        0.0038
     20 C           1.1534   -5.8295    0.0000 C.3     1  UNL1        0.0642
     21 C           1.1534   -7.1595    0.0000 C.2     1  UNL1        0.1502
     22 C           2.3068   -7.8246    0.0000 C.3     1  UNL1        0.0573
     23 C           9.9132    0.0000    0.0000 C.3     1  UNL1       -0.0000
     24 C           8.5624    0.0000    0.0000 C.3     1  UNL1       -0.0000
     25 C           6.9309   -2.5043    0.0000 C.3     1  UNL1        0.1816
     26 O           5.8295   -1.8704    0.0000 O.3     1  UNL1       -0.2204
     27 C           6.9725   -6.4737    0.0000 C.3     1  UNL1       -0.0002
     28 C           4.6553   -6.4737    0.0000 C.3     1  UNL1       -0.0006
     29 C           3.4707   -8.4896    0.0000 C.3     1  UNL1        0.0001
     30 C          10.3912   -4.4890    0.0000 C.3     1  UNL1       -0.0003
     31 O           0.0000   -7.8246    0.0000 O.2     1  UNL1       -0.2961
     32 C           2.3068   -9.1650    0.0000 C.3     1  UNL1        0.0077
     33 H           8.0740   -4.4474    0.0000 H       1  UNL1        0.0319
     34 H           3.4707   -4.4890    0.0000 H       1  UNL1        0.0319
     35 H           5.7775   -4.4786    0.0000 H       1  UNL1        0.0318
@<TRIPOS>BOND
     1     1    12    1
     2     1     2    1
     3     1    23    1
     4     1    24    1
     5     2     3    1
     6     3     4    1
     7     3    14    1
     8     3    33    1
     9     4    17    1
    10     4     5    1
    11     4    25    1
    12     5     6    1
    13     5    16    1
    14     5    27    1
    15     6    11    1
    16     6     7    1
    17     6    35    1
    18     7     8    1
    19     7    18    1
    20     7    28    1
    21     8    19    1
    22     8     9    1
    23     8    34    1
    24     9    22    1
    25     9    10    1
    26     9    29    1
    27    10    11    1
    28    12    13    1
    29    13    14    1
    30    14    15    1
    31    14    30    1
    32    15    16    1
    33    17    18    1
    34    19    20    1
    35    20    21    1
    36    21    22    1
    37    21    31    2
    38    22    32    1
    39    25    26    1
