@<TRIPOS>MOLECULE
IMPHY003492
 31 32 0 0 0
SMALL
GASTEIGER

@<TRIPOS>ATOM
      1 O           2.0000    2.9400    0.0000 O.3     1  UNL1       -0.3947
      2 N           4.5981   -0.5600    0.0000 N.pl3   1  UNL1       -0.3273
      3 N           6.4103   -1.7553    0.0000 N.ar    1  UNL1       -0.3404
      4 N           3.7320   -2.0600    0.0000 N.ar    1  UNL1       -0.2187
      5 N           6.4103   -3.3647    0.0000 N.ar    1  UNL1       -0.2164
      6 N           4.5981   -3.5600    0.0000 N.ar    1  UNL1       -0.2144
      7 C           2.8660    1.4400    0.0000 C.3     1  UNL1       -0.0192
      8 C           3.7320    0.9400    0.0000 C.3     1  UNL1       -0.0328
      9 C           3.7320   -0.0600    0.0000 C.3     1  UNL1        0.0108
     10 C           2.8660    2.4400    0.0000 C.3     1  UNL1        0.0468
     11 C           2.0000    0.9400    0.0000 C.3     1  UNL1       -0.0603
     12 C           4.5981   -1.5600    0.0000 C.ar    1  UNL1        0.1477
     13 C           5.4641   -2.0600    0.0000 C.ar    1  UNL1        0.1253
     14 C           5.4641   -3.0600    0.0000 C.ar    1  UNL1        0.1825
     15 C           6.9939   -2.5600    0.0000 C.ar    1  UNL1        0.0963
     16 C           3.7320   -3.0600    0.0000 C.ar    1  UNL1        0.1205
     17 H           2.3291    1.7500    0.0000 H       1  UNL1        0.0321
     18 H           4.3426    0.8323    0.0000 H       1  UNL1        0.0284
     19 H           3.9441    1.5226    0.0000 H       1  UNL1        0.0284
     20 H           3.1215    0.0477    0.0000 H       1  UNL1        0.0462
     21 H           3.5200   -0.6426    0.0000 H       1  UNL1        0.0462
     22 H           3.4766    2.3323    0.0000 H       1  UNL1        0.0560
     23 H           3.0781    3.0226    0.0000 H       1  UNL1        0.0560
     24 H           1.6900    1.4769    0.0000 H       1  UNL1        0.0233
     25 H           1.4631    0.6300    0.0000 H       1  UNL1        0.0233
     26 H           2.3100    0.4031    0.0000 H       1  UNL1        0.0233
     27 H           5.1350   -0.2500    0.0000 H       1  UNL1        0.1475
     28 H           6.6029   -1.1660    0.0000 H       1  UNL1        0.1669
     29 H           2.0000    3.5600    0.0000 H       1  UNL1        0.2094
     30 H           7.6139   -2.5600    0.0000 H       1  UNL1        0.1027
     31 H           3.1951   -3.3700    0.0000 H       1  UNL1        0.1048
@<TRIPOS>BOND
     1     1    10    1
     2     1    29    1
     3     2     9    1
     4     2    12    1
     5     2    27    1
     6     3    13   ar
     7     3    15   ar
     8     3    28    1
     9     4    12   ar
    10     4    16   ar
    11     5    14   ar
    12     5    15   ar
    13     6    14   ar
    14     6    16   ar
    15     7     8    1
    16     7    10    1
    17     7    11    1
    18     7    17    1
    19     8     9    1
    20     8    18    1
    21     8    19    1
    22     9    20    1
    23     9    21    1
    24    10    22    1
    25    10    23    1
    26    11    24    1
    27    11    25    1
    28    11    26    1
    29    12    13   ar
    30    13    14   ar
    31    15    30    1
    32    16    31    1
