@<TRIPOS>MOLECULE
IMPHY002341
 13 13 0 0 0
SMALL
GASTEIGER

@<TRIPOS>ATOM
      1 C        2534.6900 2522.6800    0.0000 C.3     1  UNL1        0.1574
      2 C        2569.3300 2502.7300    0.0000 C.3     1  UNL1        0.2122
      3 O        2603.9700 2522.6800    0.0000 O.3     1  UNL1       -0.2177
      4 C        2554.6400 2557.3200    0.0000 C.3     1  UNL1        0.0357
      5 O        2514.6400 2557.3200    0.0000 O.3     1  UNL1       -0.2230
      6 C        2500.0500 2502.7300    0.0000 C.3     1  UNL1        0.0380
      7 C        2465.4100 2522.6800    0.0000 C.3     1  UNL1        0.0670
      8 C        2430.6700 2502.7300    0.0000 C.2     1  UNL1        0.1503
      9 O        2396.0300 2522.6800    0.0000 O.2     1  UNL1       -0.2961
     10 C        2430.6700 2462.7300    0.0000 C.3     1  UNL1        0.0576
     11 C        2465.4100 2442.6800    0.0000 C.3     1  UNL1        0.0074
     12 C        2500.0500 2462.7300    0.0000 C.3     1  UNL1        0.0034
     13 C        2396.0300 2442.6800    0.0000 C.3     1  UNL1        0.0078
@<TRIPOS>BOND
     1     1     2    1
     2     1     4    1
     3     1     5    1
     4     1     6    1
     5     2     3    1
     6     6     7    1
     7     6    12    1
     8     7     8    1
     9     8     9    2
    10     8    10    1
    11    10    13    1
    12    11    10    1
    13    12    11    1
