@<TRIPOS>MOLECULE
IMPHY000767
 29 30 0 0 0
SMALL
GASTEIGER

@<TRIPOS>ATOM
      1 S           5.9150   -0.3239    0.0000 S.2     1  UNL1       -0.0900
      2 S           8.4841    0.5426    0.0000 S.2     1  UNL1       -0.0794
      3 O           3.9470   -1.0233    0.0000 O.3     1  UNL1       -0.3844
      4 O           2.4608    0.3149    0.0000 O.3     1  UNL1       -0.3921
      5 C           4.1550   -0.0452    0.0000 C.3     1  UNL1        0.1092
      6 C           5.1060    0.2638    0.0000 C.ar    1  UNL1        0.0209
      7 C           6.7240    0.2638    0.0000 C.ar    1  UNL1        0.0263
      8 C           5.4150    1.2149    0.0000 C.ar    1  UNL1       -0.0484
      9 C           6.4150    1.2149    0.0000 C.ar    1  UNL1       -0.0461
     10 C           3.4118    0.6240    0.0000 C.3     1  UNL1        0.0748
     11 C           7.6751   -0.0452    0.0000 C.ar    1  UNL1        0.0271
     12 C           7.9841   -0.9962    0.0000 C.ar    1  UNL1       -0.0452
     13 C           8.9841   -0.9962    0.0000 C.ar    1  UNL1       -0.0386
     14 C           9.2931   -0.0452    0.0000 C.ar    1  UNL1        0.0625
     15 C          10.2442    0.2638    0.0000 C.1     1  UNL1       -0.0594
     16 C          11.1952    0.5729    0.0000 C.1     1  UNL1       -0.0998
     17 C          12.1463    0.8819    0.0000 C.3     1  UNL1       -0.0022
     18 H           4.6157   -0.4600    0.0000 H       1  UNL1        0.0672
     19 H           5.0506    1.7165    0.0000 H       1  UNL1        0.0627
     20 H           6.7794    1.7165    0.0000 H       1  UNL1        0.0629
     21 H           3.9004    1.0057    0.0000 H       1  UNL1        0.0586
     22 H           3.1207    1.1714    0.0000 H       1  UNL1        0.0586
     23 H           7.6197   -1.4978    0.0000 H       1  UNL1        0.0629
     24 H           9.3485   -1.4978    0.0000 H       1  UNL1        0.0635
     25 H           3.3574   -1.2149    0.0000 H       1  UNL1        0.2104
     26 H           2.0000    0.7298    0.0000 H       1  UNL1        0.2095
     27 H          12.3379    0.2922    0.0000 H       1  UNL1        0.0362
     28 H          12.7360    1.0735    0.0000 H       1  UNL1        0.0362
     29 H          11.9547    1.4715    0.0000 H       1  UNL1        0.0362
@<TRIPOS>BOND
     1     1     6   ar
     2     1     7   ar
     3     2    11   ar
     4     2    14   ar
     5     3     5    1
     6     3    25    1
     7     4    10    1
     8     4    26    1
     9     5     6    1
    10     5    10    1
    11     5    18    1
    12     6     8   ar
    13     7     9   ar
    14     7    11    1
    15     8     9   ar
    16     8    19    1
    17     9    20    1
    18    10    21    1
    19    10    22    1
    20    11    12   ar
    21    12    13   ar
    22    12    23    1
    23    13    14   ar
    24    13    24    1
    25    14    15    1
    26    15    16    3
    27    16    17    1
    28    17    27    1
    29    17    28    1
    30    17    29    1
