@<TRIPOS>MOLECULE
IMPHY012619
 28 27 0 0 0
SMALL
GASTEIGER

@<TRIPOS>ATOM
      1 O           4.0981    0.9330    0.0000 O.3     1  UNL1       -0.3791
      2 O           3.7320   -1.4330    0.0000 O.2     1  UNL1       -0.2727
      3 N           2.8660    0.0670    0.0000 N.am    1  UNL1       -0.3160
      4 C           5.4641    0.5670    0.0000 C.3     1  UNL1       -0.0006
      5 C           4.5981    0.0670    0.0000 C.3     1  UNL1        0.1433
      6 C           6.3301    1.0670    0.0000 C.3     1  UNL1       -0.0570
      7 C           4.9641    1.4330    0.0000 C.3     1  UNL1       -0.0570
      8 C           5.9641   -0.2990    0.0000 C.3     1  UNL1       -0.0570
      9 C           5.0981   -0.7990    0.0000 C.3     1  UNL1       -0.0270
     10 C           3.7320   -0.4330    0.0000 C.2     1  UNL1        0.2448
     11 C           2.0000   -0.4330    0.0000 C.3     1  UNL1        0.0001
     12 H           6.6401    0.5301    0.0000 H       1  UNL1        0.0236
     13 H           6.8671    1.3770    0.0000 H       1  UNL1        0.0236
     14 H           6.0201    1.6039    0.0000 H       1  UNL1        0.0236
     15 H           5.5010    1.7430    0.0000 H       1  UNL1        0.0236
     16 H           4.6541    1.9700    0.0000 H       1  UNL1        0.0236
     17 H           4.4272    1.1230    0.0000 H       1  UNL1        0.0236
     18 H           5.4272   -0.6090    0.0000 H       1  UNL1        0.0236
     19 H           6.2741   -0.8360    0.0000 H       1  UNL1        0.0236
     20 H           6.5010    0.0110    0.0000 H       1  UNL1        0.0236
     21 H           4.5611   -1.1090    0.0000 H       1  UNL1        0.0262
     22 H           5.4081   -1.3360    0.0000 H       1  UNL1        0.0262
     23 H           5.6350   -0.4890    0.0000 H       1  UNL1        0.0262
     24 H           3.4781    0.9330    0.0000 H       1  UNL1        0.2108
     25 H           2.8660    0.6870    0.0000 H       1  UNL1        0.1484
     26 H           1.6900    0.1039    0.0000 H       1  UNL1        0.0426
     27 H           1.4631   -0.7430    0.0000 H       1  UNL1        0.0426
     28 H           2.3100   -0.9699    0.0000 H       1  UNL1        0.0426
@<TRIPOS>BOND
     1     1     5    1
     2     1    24    1
     3     2    10    2
     4     3    10   am
     5     3    11    1
     6     3    25    1
     7     4     5    1
     8     4     6    1
     9     4     7    1
    10     4     8    1
    11     5     9    1
    12     5    10    1
    13     6    12    1
    14     6    13    1
    15     6    14    1
    16     7    15    1
    17     7    16    1
    18     7    17    1
    19     8    18    1
    20     8    19    1
    21     8    20    1
    22     9    21    1
    23     9    22    1
    24     9    23    1
    25    11    26    1
    26    11    27    1
    27    11    28    1
