@<TRIPOS>MOLECULE
IMPHY010837
 81 85 0 0 0
SMALL
GASTEIGER

@<TRIPOS>ATOM
      1 O          10.9848    2.6467    0.0000 O.3     1  UNL1       -0.3912
      2 O           6.5109   -2.7298    0.0000 O.3     1  UNL1       -0.4800
      3 O           7.8770   -2.3637    0.0000 O.2     1  UNL1       -0.2500
      4 C           7.3770   -0.4977    0.0000 C.3     1  UNL1       -0.0090
      5 C           7.3770    0.5023    0.0000 C.3     1  UNL1       -0.0252
      6 C           8.2709    1.0370    0.0000 C.3     1  UNL1       -0.0249
      7 C           6.5109   -0.9977    0.0000 C.3     1  UNL1        0.0944
      8 C           9.1770    0.5231    0.0000 C.3     1  UNL1       -0.0278
      9 C           8.2709   -1.0324    0.0000 C.3     1  UNL1       -0.0457
     10 C           5.6449   -0.4977    0.0000 C.2     1  UNL1       -0.0524
     11 C           4.7349   -1.0045    0.0000 C.3     1  UNL1       -0.0106
     12 C           9.1770   -0.5185    0.0000 C.3     1  UNL1       -0.0486
     13 C          10.1208    1.0584    0.0000 C.3     1  UNL1       -0.0056
     14 C           4.7269   -2.0461    0.0000 C.3     1  UNL1       -0.0252
     15 C           6.5109    1.0023    0.0000 C.3     1  UNL1       -0.0306
     16 C           6.5270   -2.0392    0.0000 C.3     1  UNL1       -0.0324
     17 C           8.2458    2.1217    0.0000 C.3     1  UNL1       -0.0447
     18 C           5.6290   -2.5670    0.0000 C.3     1  UNL1       -0.0458
     19 C           7.5507   -1.4825    0.0000 C.3     1  UNL1       -0.0580
     20 C          10.1208    2.1434    0.0000 C.3     1  UNL1        0.0606
     21 C           5.6449    0.5023    0.0000 C.2     1  UNL1       -0.0831
     22 C           3.8081   -0.4405    0.0000 C.3     1  UNL1       -0.0342
     23 C           7.4010    1.5303    0.0000 C.3     1  UNL1       -0.0590
     24 C           9.1770    2.6786    0.0000 C.3     1  UNL1       -0.0258
     25 C           3.7914   -2.5959    0.0000 C.3     1  UNL1       -0.0468
     26 C           7.0109   -1.8637    0.0000 C.2     1  UNL1        0.3156
     27 C           2.8602   -0.9684    0.0000 C.3     1  UNL1       -0.0407
     28 C           2.8518   -2.0534    0.0000 C.3     1  UNL1       -0.0497
     29 C          11.1207    1.0545    0.0000 C.3     1  UNL1       -0.0572
     30 C          10.6174    0.1904    0.0000 C.3     1  UNL1       -0.0572
     31 C           4.7192   -3.0461    0.0000 C.3     1  UNL1       -0.0590
     32 C           3.8273    0.5594    0.0000 C.3     1  UNL1       -0.0616
     33 C           2.0000   -0.4584    0.0000 C.3     1  UNL1       -0.0622
     34 H           8.1163    0.0830    0.0000 H       1  UNL1        0.0315
     35 H           9.9114    0.0953    0.0000 H       1  UNL1        0.0312
     36 H           7.8663   -1.5021    0.0000 H       1  UNL1        0.0271
     37 H           8.6645   -1.5114    0.0000 H       1  UNL1        0.0271
     38 H           4.7513   -0.1547    0.0000 H       1  UNL1        0.0354
     39 H           9.3860   -1.1022    0.0000 H       1  UNL1        0.0268
     40 H           9.7878   -0.4124    0.0000 H       1  UNL1        0.0268
     41 H           6.9095    1.4772    0.0000 H       1  UNL1        0.0310
     42 H           6.1124    1.4772    0.0000 H       1  UNL1        0.0310
     43 H           6.7450   -2.6196    0.0000 H       1  UNL1        0.0279
     44 H           7.1361   -1.9237    0.0000 H       1  UNL1        0.0279
     45 H           8.0233    2.7004    0.0000 H       1  UNL1        0.0271
     46 H           7.6376    2.0015    0.0000 H       1  UNL1        0.0271
     47 H           5.2316   -3.0429    0.0000 H       1  UNL1        0.0271
     48 H           6.0299   -3.0398    0.0000 H       1  UNL1        0.0271
     49 H           6.9401   -1.5902    0.0000 H       1  UNL1        0.0236
     50 H           7.6584   -2.0931    0.0000 H       1  UNL1        0.0236
     51 H           8.1613   -1.3748    0.0000 H       1  UNL1        0.0236
     52 H          10.6583    1.8344    0.0000 H       1  UNL1        0.0599
     53 H           5.1080    0.8123    0.0000 H       1  UNL1        0.0572
     54 H           3.2766   -0.1212    0.0000 H       1  UNL1        0.0307
     55 H           7.7069    2.0696    0.0000 H       1  UNL1        0.0235
     56 H           6.8617    1.8361    0.0000 H       1  UNL1        0.0235
     57 H           7.0952    0.9910    0.0000 H       1  UNL1        0.0235
     58 H           9.5706    3.1576    0.0000 H       1  UNL1        0.0290
     59 H           8.7724    3.1484    0.0000 H       1  UNL1        0.0290
     60 H           3.3942   -3.0718    0.0000 H       1  UNL1        0.0271
     61 H           4.1924   -3.0688    0.0000 H       1  UNL1        0.0271
     62 H           2.3203   -1.2732    0.0000 H       1  UNL1        0.0301
     63 H           2.2418   -1.9426    0.0000 H       1  UNL1        0.0268
     64 H           2.6383   -2.6354    0.0000 H       1  UNL1        0.0268
     65 H          11.1184    0.4345    0.0000 H       1  UNL1        0.0236
     66 H          11.7407    1.0521    0.0000 H       1  UNL1        0.0236
     67 H          11.1231    1.6745    0.0000 H       1  UNL1        0.0236
     68 H          10.0793   -0.1175    0.0000 H       1  UNL1        0.0236
     69 H          10.9253   -0.3477    0.0000 H       1  UNL1        0.0236
     70 H          11.1555    0.4983    0.0000 H       1  UNL1        0.0236
     71 H           4.0992   -3.0413    0.0000 H       1  UNL1        0.0235
     72 H           4.7144   -3.6661    0.0000 H       1  UNL1        0.0235
     73 H           5.3392   -3.0509    0.0000 H       1  UNL1        0.0235
     74 H           4.4472    0.5474    0.0000 H       1  UNL1        0.0233
     75 H           3.8393    1.1792    0.0000 H       1  UNL1        0.0233
     76 H           3.2075    0.5713    0.0000 H       1  UNL1        0.0233
     77 H           2.3162    0.0749    0.0000 H       1  UNL1        0.0233
     78 H           1.4667   -0.1422    0.0000 H       1  UNL1        0.0233
     79 H           1.6838   -0.9917    0.0000 H       1  UNL1        0.0233
     80 H          10.9825    3.2667    0.0000 H       1  UNL1        0.2098
     81 H           6.8209   -3.2667    0.0000 H       1  UNL1        0.2951
@<TRIPOS>BOND
     1    20     1    1
     2     1    80    1
     3     2    26    1
     4     2    81    1
     5     3    26    2
     6     4     5    1
     7     4     7    1
     8     4     9    1
     9     4    19    1
    10     5     6    1
    11     5    15    1
    12     5    34    1
    13     6     8    1
    14     6    17    1
    15     6    23    1
    16     7    10    1
    17     7    16    1
    18     7    26    1
    19     8    12    1
    20     8    13    1
    21     8    35    1
    22     9    12    1
    23     9    36    1
    24     9    37    1
    25    10    11    1
    26    10    21    2
    27    11    14    1
    28    11    22    1
    29    11    38    1
    30    12    39    1
    31    12    40    1
    32    13    20    1
    33    13    29    1
    34    13    30    1
    35    14    18    1
    36    14    25    1
    37    14    31    1
    38    15    21    1
    39    15    41    1
    40    15    42    1
    41    16    18    1
    42    16    43    1
    43    16    44    1
    44    17    24    1
    45    17    45    1
    46    17    46    1
    47    18    47    1
    48    18    48    1
    49    19    49    1
    50    19    50    1
    51    19    51    1
    52    20    24    1
    53    20    52    1
    54    21    53    1
    55    22    27    1
    56    22    32    1
    57    22    54    1
    58    23    55    1
    59    23    56    1
    60    23    57    1
    61    24    58    1
    62    24    59    1
    63    25    28    1
    64    25    60    1
    65    25    61    1
    66    27    28    1
    67    27    33    1
    68    27    62    1
    69    28    63    1
    70    28    64    1
    71    29    65    1
    72    29    66    1
    73    29    67    1
    74    30    68    1
    75    30    69    1
    76    30    70    1
    77    31    71    1
    78    31    72    1
    79    31    73    1
    80    32    74    1
    81    32    75    1
    82    32    76    1
    83    33    77    1
    84    33    78    1
    85    33    79    1
