@<TRIPOS>MOLECULE
IMPHY005788
 81 90 0 0 0
SMALL
GASTEIGER

@<TRIPOS>ATOM
      1 O           5.7180    1.1379    0.0000 O.3     1  UNL1       -0.4829
      2 O           6.2955   -3.9425    0.0000 O.3     1  UNL1       -0.4829
      3 O          10.4065   -0.9021    0.0000 O.3     1  UNL1       -0.4829
      4 O           3.2719   -1.0274    0.0000 O.3     1  UNL1       -0.5066
      5 O           9.3939   -4.9782    0.0000 O.3     1  UNL1       -0.5066
      6 O           9.7543    2.2990    0.0000 O.3     1  UNL1       -0.5066
      7 O           7.3172    5.0684    0.0000 O.3     1  UNL1       -0.5068
      8 O           2.0920   -4.5227    0.0000 O.3     1  UNL1       -0.5068
      9 O          13.0108   -4.2524    0.0000 O.3     1  UNL1       -0.5068
     10 C           6.5336   -2.3554    0.0000 C.3     1  UNL1        0.0546
     11 C           6.9734    0.1382    0.0000 C.3     1  UNL1        0.0546
     12 C           8.9130   -1.4894    0.0000 C.3     1  UNL1        0.0546
     13 C           6.2073   -0.5046    0.0000 C.ar    1  UNL1        0.0097
     14 C           7.4734   -2.6975    0.0000 C.ar    1  UNL1        0.0097
     15 C           8.7394   -0.5046    0.0000 C.ar    1  UNL1        0.0097
     16 C           6.0336   -1.4894    0.0000 C.ar    1  UNL1       -0.0252
     17 C           7.9734    0.1382    0.0000 C.ar    1  UNL1       -0.0252
     18 C           8.4130   -2.3554    0.0000 C.ar    1  UNL1       -0.0252
     19 C           6.7237    1.1127    0.0000 C.3     1  UNL1        0.1360
     20 C           5.8145   -3.0589    0.0000 C.3     1  UNL1        0.1360
     21 C           9.8818   -1.7605    0.0000 C.3     1  UNL1        0.1360
     22 C           5.4198    0.1771    0.0000 C.ar    1  UNL1        0.1290
     23 C           7.2767   -3.7204    0.0000 C.ar    1  UNL1        0.1290
     24 C           9.7236   -0.1635    0.0000 C.ar    1  UNL1        0.1290
     25 C           5.0604   -1.8607    0.0000 C.ar    1  UNL1       -0.0158
     26 C           8.1384    1.1666    0.0000 C.ar    1  UNL1       -0.0158
     27 C           9.2212   -3.0126    0.0000 C.ar    1  UNL1       -0.0158
     28 C           6.8721    2.1016    0.0000 C.ar    1  UNL1       -0.0062
     29 C           4.8839   -3.4249    0.0000 C.ar    1  UNL1       -0.0062
     30 C          10.6641   -2.3834    0.0000 C.ar    1  UNL1       -0.0062
     31 C           4.4382   -0.1716    0.0000 C.ar    1  UNL1        0.0219
     32 C           8.0694   -4.3960    0.0000 C.ar    1  UNL1        0.0219
     33 C           9.9124    0.8609    0.0000 C.ar    1  UNL1        0.0219
     34 C           4.2574   -1.1974    0.0000 C.ar    1  UNL1        0.1206
     35 C           9.0482   -4.0398    0.0000 C.ar    1  UNL1        0.1206
     36 C           9.1144    1.5304    0.0000 C.ar    1  UNL1        0.1206
     37 C           7.8027    2.4676    0.0000 C.ar    1  UNL1       -0.0516
     38 C           6.0898    2.7246    0.0000 C.ar    1  UNL1       -0.0516
     39 C           4.1017   -2.8019    0.0000 C.ar    1  UNL1       -0.0516
     40 C           4.7355   -4.4138    0.0000 C.ar    1  UNL1       -0.0516
     41 C          10.5158   -3.3723    0.0000 C.ar    1  UNL1       -0.0516
     42 C          11.5947   -2.0175    0.0000 C.ar    1  UNL1       -0.0516
     43 C           7.9511    3.4565    0.0000 C.ar    1  UNL1       -0.0198
     44 C           6.2382    3.7135    0.0000 C.ar    1  UNL1       -0.0198
     45 C           3.1710   -3.1679    0.0000 C.ar    1  UNL1       -0.0198
     46 C           3.8048   -4.7797    0.0000 C.ar    1  UNL1       -0.0198
     47 C          11.2979   -3.9953    0.0000 C.ar    1  UNL1       -0.0198
     48 C          12.3769   -2.6405    0.0000 C.ar    1  UNL1       -0.0198
     49 C           7.1688    4.0795    0.0000 C.ar    1  UNL1        0.1169
     50 C           3.0226   -4.1568    0.0000 C.ar    1  UNL1        0.1169
     51 C          12.2285   -3.6294    0.0000 C.ar    1  UNL1        0.1169
     52 H           7.0800   -1.7043    0.0000 H       1  UNL1        0.0438
     53 H           7.2641   -0.6606    0.0000 H       1  UNL1        0.0438
     54 H           9.2340   -2.2765    0.0000 H       1  UNL1        0.0438
     55 H           6.3250    1.5875    0.0000 H       1  UNL1        0.0794
     56 H           5.6026   -3.6416    0.0000 H       1  UNL1        0.0794
     57 H          10.4924   -1.6526    0.0000 H       1  UNL1        0.0794
     58 H           4.9598   -2.4725    0.0000 H       1  UNL1        0.0657
     59 H           7.6589    1.5596    0.0000 H       1  UNL1        0.0657
     60 H           9.8013   -2.7938    0.0000 H       1  UNL1        0.0657
     61 H           3.9648    0.2288    0.0000 H       1  UNL1        0.0691
     62 H           7.9594   -5.0062    0.0000 H       1  UNL1        0.0691
     63 H          10.4958    1.0707    0.0000 H       1  UNL1        0.0691
     64 H           8.2877    2.0813    0.0000 H       1  UNL1        0.0623
     65 H           5.5128    2.4977    0.0000 H       1  UNL1        0.0623
     66 H           4.1937   -2.1888    0.0000 H       1  UNL1        0.0623
     67 H           5.2204   -4.8000    0.0000 H       1  UNL1        0.0623
     68 H           9.9388   -3.5992    0.0000 H       1  UNL1        0.0623
     69 H          11.6867   -1.4044    0.0000 H       1  UNL1        0.0623
     70 H           3.0576   -0.4457    0.0000 H       1  UNL1        0.2921
     71 H           8.9972   -5.4546    0.0000 H       1  UNL1        0.2921
     72 H          10.3652    2.1936    0.0000 H       1  UNL1        0.2921
     73 H           8.5281    3.6834    0.0000 H       1  UNL1        0.0654
     74 H           5.7532    4.0998    0.0000 H       1  UNL1        0.0654
     75 H           2.6860   -2.7816    0.0000 H       1  UNL1        0.0654
     76 H           3.7128   -5.3928    0.0000 H       1  UNL1        0.0654
     77 H          11.2059   -4.6085    0.0000 H       1  UNL1        0.0654
     78 H          12.9539   -2.4136    0.0000 H       1  UNL1        0.0654
     79 H           6.8322    5.4546    0.0000 H       1  UNL1        0.2921
     80 H           2.0000   -5.1359    0.0000 H       1  UNL1        0.2921
     81 H          13.5878   -4.0255    0.0000 H       1  UNL1        0.2921
@<TRIPOS>BOND
     1     1    19    1
     2     1    22    1
     3     2    20    1
     4     2    23    1
     5     3    21    1
     6     3    24    1
     7     4    34    1
     8     4    70    1
     9     5    35    1
    10     5    71    1
    11     6    36    1
    12     6    72    1
    13     7    49    1
    14     7    79    1
    15     8    50    1
    16     8    80    1
    17     9    51    1
    18     9    81    1
    19    10    14    1
    20    10    16    1
    21    10    20    1
    22    10    52    1
    23    11    13    1
    24    11    17    1
    25    11    19    1
    26    11    53    1
    27    12    15    1
    28    12    18    1
    29    12    21    1
    30    12    54    1
    31    13    16   ar
    32    13    22   ar
    33    14    18   ar
    34    14    23   ar
    35    15    17   ar
    36    15    24   ar
    37    16    25   ar
    38    17    26   ar
    39    18    27   ar
    40    19    28    1
    41    19    55    1
    42    20    29    1
    43    20    56    1
    44    21    30    1
    45    21    57    1
    46    22    31   ar
    47    23    32   ar
    48    24    33   ar
    49    25    34   ar
    50    25    58    1
    51    26    36   ar
    52    26    59    1
    53    27    35   ar
    54    27    60    1
    55    28    37   ar
    56    28    38   ar
    57    29    39   ar
    58    29    40   ar
    59    30    41   ar
    60    30    42   ar
    61    31    34   ar
    62    31    61    1
    63    32    35   ar
    64    32    62    1
    65    33    36   ar
    66    33    63    1
    67    37    43   ar
    68    37    64    1
    69    38    44   ar
    70    38    65    1
    71    39    45   ar
    72    39    66    1
    73    40    46   ar
    74    40    67    1
    75    41    47   ar
    76    41    68    1
    77    42    48   ar
    78    42    69    1
    79    43    49   ar
    80    43    73    1
    81    44    49   ar
    82    44    74    1
    83    45    50   ar
    84    45    75    1
    85    46    50   ar
    86    46    76    1
    87    47    51   ar
    88    47    77    1
    89    48    51   ar
    90    48    78    1
