@<TRIPOS>MOLECULE
IMPHY004581
 29 29 0 0 0
SMALL
GASTEIGER

@<TRIPOS>ATOM
      1 O           4.2690    2.7500    0.0000 O.3     1  UNL1       -0.4915
      2 O           6.8671   -2.7500    0.0000 O.3     1  UNL1       -0.4679
      3 O           2.5369    1.7500    0.0000 O.3     1  UNL1       -0.5033
      4 O           7.7331   -1.2500    0.0000 O.2     1  UNL1       -0.2509
      5 C           6.0010   -0.2500    0.0000 C.3     1  UNL1       -0.0175
      6 C           5.1350    0.2500    0.0000 C.ar    1  UNL1       -0.0432
      7 C           6.0010   -1.2500    0.0000 C.3     1  UNL1        0.0489
      8 C           5.1350    1.2500    0.0000 C.ar    1  UNL1       -0.0131
      9 C           4.2690   -0.2500    0.0000 C.ar    1  UNL1       -0.0549
     10 C           4.2690    1.7500    0.0000 C.ar    1  UNL1        0.1615
     11 C           3.4030    0.2500    0.0000 C.ar    1  UNL1       -0.0163
     12 C           3.4030    1.2500    0.0000 C.ar    1  UNL1        0.1585
     13 C           6.8671   -1.7500    0.0000 C.2     1  UNL1        0.3071
     14 C           5.1350    3.2500    0.0000 C.3     1  UNL1        0.0790
     15 C           7.7331   -3.2500    0.0000 C.3     1  UNL1        0.0817
     16 H           6.6116   -0.3577    0.0000 H       1  UNL1        0.0318
     17 H           6.2131    0.3326    0.0000 H       1  UNL1        0.0318
     18 H           5.3905   -1.1423    0.0000 H       1  UNL1        0.0381
     19 H           5.7890   -1.8326    0.0000 H       1  UNL1        0.0381
     20 H           5.6720    1.5600    0.0000 H       1  UNL1        0.0658
     21 H           4.2690   -0.8700    0.0000 H       1  UNL1        0.0621
     22 H           2.8660   -0.0600    0.0000 H       1  UNL1        0.0655
     23 H           2.0000    1.4400    0.0000 H       1  UNL1        0.2923
     24 H           5.4450    2.7131    0.0000 H       1  UNL1        0.0660
     25 H           5.6720    3.5600    0.0000 H       1  UNL1        0.0660
     26 H           4.8250    3.7869    0.0000 H       1  UNL1        0.0660
     27 H           7.4231   -3.7869    0.0000 H       1  UNL1        0.0661
     28 H           8.2700   -3.5600    0.0000 H       1  UNL1        0.0661
     29 H           8.0431   -2.7131    0.0000 H       1  UNL1        0.0661
@<TRIPOS>BOND
     1     1    10    1
     2     1    14    1
     3     2    13    1
     4     2    15    1
     5     3    12    1
     6     3    23    1
     7     4    13    2
     8     5     6    1
     9     5     7    1
    10     5    16    1
    11     5    17    1
    12     6     8   ar
    13     6     9   ar
    14     7    13    1
    15     7    18    1
    16     7    19    1
    17     8    10   ar
    18     8    20    1
    19     9    11   ar
    20     9    21    1
    21    10    12   ar
    22    11    12   ar
    23    11    22    1
    24    14    24    1
    25    14    25    1
    26    14    26    1
    27    15    27    1
    28    15    28    1
    29    15    29    1
