@<TRIPOS>MOLECULE
IMPHY009921
 38 39 0 0 0
SMALL
GASTEIGER

@<TRIPOS>ATOM
      1 O           3.4511    3.1144    0.0000 O.3     1  UNL1       -0.3917
      2 C           2.9511    0.5756    0.0000 C.3     1  UNL1        0.0005
      3 C           3.9511    0.5756    0.0000 C.3     1  UNL1       -0.0231
      4 C           2.6420    1.5266    0.0000 C.3     1  UNL1       -0.0169
      5 C           4.2601    1.5266    0.0000 C.3     1  UNL1       -0.0209
      6 C           3.4511    2.1144    0.0000 C.3     1  UNL1        0.0566
      7 C           2.0000    0.2666    0.0000 C.3     1  UNL1       -0.0550
      8 C           2.9511   -0.4244    0.0000 C.ar    1  UNL1       -0.0408
      9 C           4.9021    0.2666    0.0000 C.3     1  UNL1       -0.0589
     10 C           4.4511   -0.2904    0.0000 C.3     1  UNL1       -0.0589
     11 C           3.8171   -0.9244    0.0000 C.ar    1  UNL1       -0.0578
     12 C           2.0850   -0.9244    0.0000 C.ar    1  UNL1       -0.0578
     13 C           3.8171   -1.9244    0.0000 C.ar    1  UNL1       -0.0586
     14 C           2.0850   -1.9244    0.0000 C.ar    1  UNL1       -0.0586
     15 C           2.9511   -2.4244    0.0000 C.ar    1  UNL1       -0.0504
     16 C           2.9511   -3.4244    0.0000 C.3     1  UNL1       -0.0397
     17 H           2.3320    2.0636    0.0000 H       1  UNL1        0.0299
     18 H           2.0756    1.2745    0.0000 H       1  UNL1        0.0299
     19 H           4.8265    1.2745    0.0000 H       1  UNL1        0.0295
     20 H           4.5701    2.0636    0.0000 H       1  UNL1        0.0295
     21 H           2.8986    2.3959    0.0000 H       1  UNL1        0.0594
     22 H           1.8084    0.8562    0.0000 H       1  UNL1        0.0238
     23 H           1.4103    0.0750    0.0000 H       1  UNL1        0.0238
     24 H           2.1916   -0.3231    0.0000 H       1  UNL1        0.0238
     25 H           4.7105   -0.3231    0.0000 H       1  UNL1        0.0235
     26 H           5.4918    0.0750    0.0000 H       1  UNL1        0.0235
     27 H           5.0937    0.8562    0.0000 H       1  UNL1        0.0235
     28 H           3.9142   -0.6004    0.0000 H       1  UNL1        0.0235
     29 H           4.7612   -0.8273    0.0000 H       1  UNL1        0.0235
     30 H           4.9880    0.0197    0.0000 H       1  UNL1        0.0235
     31 H           3.9880    3.4244    0.0000 H       1  UNL1        0.2098
     32 H           4.3540   -0.6144    0.0000 H       1  UNL1        0.0621
     33 H           1.5481   -0.6144    0.0000 H       1  UNL1        0.0621
     34 H           4.3540   -2.2344    0.0000 H       1  UNL1        0.0620
     35 H           1.5481   -2.2344    0.0000 H       1  UNL1        0.0620
     36 H           2.3311   -3.4244    0.0000 H       1  UNL1        0.0278
     37 H           2.9511   -4.0444    0.0000 H       1  UNL1        0.0278
     38 H           3.5711   -3.4244    0.0000 H       1  UNL1        0.0278
@<TRIPOS>BOND
     1     6     1    1
     2     1    31    1
     3     2     3    1
     4     2     4    1
     5     2     7    1
     6     2     8    1
     7     3     5    1
     8     3     9    1
     9     3    10    1
    10     4     6    1
    11     4    17    1
    12     4    18    1
    13     5     6    1
    14     5    19    1
    15     5    20    1
    16     6    21    1
    17     7    22    1
    18     7    23    1
    19     7    24    1
    20     8    11   ar
    21     8    12   ar
    22     9    25    1
    23     9    26    1
    24     9    27    1
    25    10    28    1
    26    10    29    1
    27    10    30    1
    28    11    13   ar
    29    11    32    1
    30    12    14   ar
    31    12    33    1
    32    13    15   ar
    33    13    34    1
    34    14    15   ar
    35    14    35    1
    36    15    16    1
    37    16    36    1
    38    16    37    1
    39    16    38    1
