@<TRIPOS>MOLECULE
IMPHY007400
 71 73 0 0 0
SMALL
GASTEIGER

@<TRIPOS>ATOM
      1 O           5.1350   -1.6550    0.0000 O.3     1  UNL1       -0.3313
      2 O           6.8671   -1.6550    0.0000 O.3     1  UNL1       -0.4569
      3 O           5.1350   -4.6550    0.0000 O.3     1  UNL1       -0.3864
      4 O           3.4030   -3.6550    0.0000 O.3     1  UNL1       -0.3865
      5 O           6.8671   -3.6550    0.0000 O.3     1  UNL1       -0.3829
      6 O           2.5369   -2.1550    0.0000 O.3     1  UNL1       -0.3924
      7 O           5.1350   -0.6550    0.0000 O.3     1  UNL1       -0.4914
      8 O           9.4651   -2.1550    0.0000 O.3     1  UNL1       -0.3944
      9 O          11.1972   -3.1550    0.0000 O.3     1  UNL1       -0.4915
     10 O          12.9292   -2.1550    0.0000 O.3     1  UNL1       -0.5033
     11 O           5.1350    4.3450    0.0000 O.3     1  UNL1       -0.3910
     12 C           5.1350   -3.6550    0.0000 C.3     1  UNL1        0.1152
     13 C           4.2690   -3.1550    0.0000 C.3     1  UNL1        0.1120
     14 C           6.0010   -3.1550    0.0000 C.3     1  UNL1        0.1454
     15 C           4.2690   -2.1550    0.0000 C.3     1  UNL1        0.1140
     16 C           6.0010   -2.1550    0.0000 C.3     1  UNL1        0.2310
     17 C           3.4030   -1.6550    0.0000 C.3     1  UNL1        0.0731
     18 C           8.5991   -0.6550    0.0000 C.3     1  UNL1        0.0149
     19 C           6.8671   -0.6550    0.0000 C.ar    1  UNL1        0.1689
     20 C           7.7331   -0.1550    0.0000 C.ar    1  UNL1        0.0042
     21 C           9.4651   -0.1550    0.0000 C.3     1  UNL1       -0.0185
     22 C           6.0010   -0.1550    0.0000 C.ar    1  UNL1        0.1625
     23 C           8.5991   -1.6550    0.0000 C.3     1  UNL1        0.0514
     24 C           7.7331    0.8450    0.0000 C.ar    1  UNL1       -0.0474
     25 C           6.8671    1.3450    0.0000 C.ar    1  UNL1       -0.0213
     26 C          10.3312   -0.6550    0.0000 C.ar    1  UNL1       -0.0430
     27 C           6.0010    0.8450    0.0000 C.ar    1  UNL1       -0.0091
     28 C          10.3312   -1.6550    0.0000 C.ar    1  UNL1       -0.0131
     29 C          11.1972   -0.1550    0.0000 C.ar    1  UNL1       -0.0549
     30 C           6.8671    2.3450    0.0000 C.2     1  UNL1       -0.0563
     31 C          11.1972   -2.1550    0.0000 C.ar    1  UNL1        0.1615
     32 C          12.0632   -0.6550    0.0000 C.ar    1  UNL1       -0.0163
     33 C          12.0632   -1.6550    0.0000 C.ar    1  UNL1        0.1585
     34 C           4.2690   -0.1550    0.0000 C.3     1  UNL1        0.0790
     35 C           6.0010    2.8450    0.0000 C.2     1  UNL1       -0.0584
     36 C           6.0010    3.8450    0.0000 C.3     1  UNL1        0.0627
     37 C          12.0632   -3.6550    0.0000 C.3     1  UNL1        0.0790
     38 H           5.6720   -3.9650    0.0000 H       1  UNL1        0.0648
     39 H           4.2690   -3.7750    0.0000 H       1  UNL1        0.0647
     40 H           6.5380   -2.8450    0.0000 H       1  UNL1        0.0683
     41 H           4.2690   -1.5350    0.0000 H       1  UNL1        0.0647
     42 H           6.0010   -1.5350    0.0000 H       1  UNL1        0.1084
     43 H           3.8015   -1.1800    0.0000 H       1  UNL1        0.0584
     44 H           3.0044   -1.1800    0.0000 H       1  UNL1        0.0584
     45 H           8.0622   -0.9650    0.0000 H       1  UNL1        0.0375
     46 H           4.5981   -4.9650    0.0000 H       1  UNL1        0.2100
     47 H           3.4030   -4.2750    0.0000 H       1  UNL1        0.2100
     48 H           6.8671   -4.2750    0.0000 H       1  UNL1        0.2102
     49 H           9.8637    0.3199    0.0000 H       1  UNL1        0.0320
     50 H           9.0666    0.3199    0.0000 H       1  UNL1        0.0320
     51 H           7.9885   -1.5473    0.0000 H       1  UNL1        0.0563
     52 H           8.3871   -2.2376    0.0000 H       1  UNL1        0.0563
     53 H           8.2700    1.1550    0.0000 H       1  UNL1        0.0627
     54 H           2.0000   -1.8450    0.0000 H       1  UNL1        0.2095
     55 H           5.4641    1.1550    0.0000 H       1  UNL1        0.0661
     56 H           9.7942   -1.9650    0.0000 H       1  UNL1        0.0658
     57 H          11.1972    0.4650    0.0000 H       1  UNL1        0.0621
     58 H           7.4040    2.6550    0.0000 H       1  UNL1        0.0621
     59 H           9.4651   -2.7750    0.0000 H       1  UNL1        0.2094
     60 H          12.6002   -0.3450    0.0000 H       1  UNL1        0.0655
     61 H           4.5790    0.3819    0.0000 H       1  UNL1        0.0660
     62 H           3.7320    0.1550    0.0000 H       1  UNL1        0.0660
     63 H           3.9590   -0.6919    0.0000 H       1  UNL1        0.0660
     64 H           5.4641    2.5350    0.0000 H       1  UNL1        0.0595
     65 H           6.6116    3.7373    0.0000 H       1  UNL1        0.0601
     66 H           6.2131    4.4276    0.0000 H       1  UNL1        0.0601
     67 H          13.4662   -1.8450    0.0000 H       1  UNL1        0.2923
     68 H          11.7532   -4.1919    0.0000 H       1  UNL1        0.0660
     69 H          12.6002   -3.9650    0.0000 H       1  UNL1        0.0660
     70 H          12.3732   -3.1181    0.0000 H       1  UNL1        0.0660
     71 H           5.1350    4.9650    0.0000 H       1  UNL1        0.2098
@<TRIPOS>BOND
     1     1    15    1
     2     1    16    1
     3    16     2    1
     4     2    19    1
     5    12     3    1
     6     3    46    1
     7    13     4    1
     8     4    47    1
     9    14     5    1
    10     5    48    1
    11     6    17    1
    12     6    54    1
    13     7    22    1
    14     7    34    1
    15     8    23    1
    16     8    59    1
    17     9    31    1
    18     9    37    1
    19    10    33    1
    20    10    67    1
    21    11    36    1
    22    11    71    1
    23    12    13    1
    24    12    14    1
    25    12    38    1
    26    13    15    1
    27    13    39    1
    28    14    16    1
    29    14    40    1
    30    15    17    1
    31    15    41    1
    32    16    42    1
    33    17    43    1
    34    17    44    1
    35    18    20    1
    36    18    21    1
    37    18    23    1
    38    18    45    1
    39    19    20   ar
    40    19    22   ar
    41    20    24   ar
    42    21    26    1
    43    21    49    1
    44    21    50    1
    45    22    27   ar
    46    23    51    1
    47    23    52    1
    48    24    25   ar
    49    24    53    1
    50    25    27   ar
    51    25    30    1
    52    26    28   ar
    53    26    29   ar
    54    27    55    1
    55    28    31   ar
    56    28    56    1
    57    29    32   ar
    58    29    57    1
    59    30    35    2
    60    30    58    1
    61    31    33   ar
    62    32    33   ar
    63    32    60    1
    64    34    61    1
    65    34    62    1
    66    34    63    1
    67    35    36    1
    68    35    64    1
    69    36    65    1
    70    36    66    1
    71    37    68    1
    72    37    69    1
    73    37    70    1
