@<TRIPOS>MOLECULE
IMPHY014644
 35 34 0 0 0
SMALL
GASTEIGER

@<TRIPOS>ATOM
      1 O           4.5981    1.5000    0.0000 O.2     1  UNL1       -0.2709
      2 N           5.4641    3.0000    0.0000 N.am    1  UNL1       -0.3116
      3 C           7.1962    3.0000    0.0000 C.3     1  UNL1       -0.0311
      4 C           6.3301    2.5000    0.0000 C.3     1  UNL1        0.0142
      5 C           8.0622    2.5000    0.0000 C.3     1  UNL1       -0.0612
      6 C           7.1962    4.0000    0.0000 C.3     1  UNL1       -0.0612
      7 C           4.5981    2.5000    0.0000 C.2     1  UNL1        0.2366
      8 C           3.7320    3.0000    0.0000 C.2     1  UNL1       -0.0038
      9 C           2.8660    1.5000    0.0000 C.3     1  UNL1       -0.0234
     10 C           2.8660    2.5000    0.0000 C.2     1  UNL1       -0.0782
     11 C           2.0000    1.0000    0.0000 C.3     1  UNL1        0.0135
     12 C           2.0000    0.0000    0.0000 C.1     1  UNL1       -0.0881
     13 C           2.0000   -1.0000    0.0000 C.1     1  UNL1       -0.0148
     14 C           2.0000   -2.0000    0.0000 C.1     1  UNL1       -0.0151
     15 C           2.0000   -3.0000    0.0000 C.1     1  UNL1       -0.0918
     16 C           2.0000   -4.0000    0.0000 C.3     1  UNL1       -0.0016
     17 H           6.6592    3.3100    0.0000 H       1  UNL1        0.0311
     18 H           5.9316    2.0250    0.0000 H       1  UNL1        0.0465
     19 H           6.7287    2.0250    0.0000 H       1  UNL1        0.0465
     20 H           7.7522    1.9631    0.0000 H       1  UNL1        0.0233
     21 H           8.5991    2.1900    0.0000 H       1  UNL1        0.0233
     22 H           8.3722    3.0369    0.0000 H       1  UNL1        0.0233
     23 H           7.8162    4.0000    0.0000 H       1  UNL1        0.0233
     24 H           7.1962    4.6200    0.0000 H       1  UNL1        0.0233
     25 H           6.5762    4.0000    0.0000 H       1  UNL1        0.0233
     26 H           5.4641    3.6200    0.0000 H       1  UNL1        0.1490
     27 H           3.7320    3.6200    0.0000 H       1  UNL1        0.0666
     28 H           3.0781    0.9174    0.0000 H       1  UNL1        0.0316
     29 H           3.4766    1.6077    0.0000 H       1  UNL1        0.0316
     30 H           2.3291    2.8100    0.0000 H       1  UNL1        0.0574
     31 H           1.7880    1.5826    0.0000 H       1  UNL1        0.0401
     32 H           1.3894    0.8923    0.0000 H       1  UNL1        0.0401
     33 H           1.3800   -4.0000    0.0000 H       1  UNL1        0.0362
     34 H           2.0000   -4.6200    0.0000 H       1  UNL1        0.0362
     35 H           2.6200   -4.0000    0.0000 H       1  UNL1        0.0362
@<TRIPOS>BOND
     1     1     7    2
     2     2     4    1
     3     2     7   am
     4     2    26    1
     5     3     4    1
     6     3     5    1
     7     3     6    1
     8     3    17    1
     9     4    18    1
    10     4    19    1
    11     5    20    1
    12     5    21    1
    13     5    22    1
    14     6    23    1
    15     6    24    1
    16     6    25    1
    17     7     8    1
    18     8    10    2
    19     8    27    1
    20     9    10    1
    21     9    11    1
    22     9    28    1
    23     9    29    1
    24    10    30    1
    25    11    12    1
    26    11    31    1
    27    11    32    1
    28    12    13    3
    29    13    14    1
    30    14    15    3
    31    15    16    1
    32    16    33    1
    33    16    34    1
    34    16    35    1
