@<TRIPOS>MOLECULE
IMPHY001389
 97 101 0 0 0
SMALL
GASTEIGER

@<TRIPOS>ATOM
      1 O           7.7704    2.0544    0.0000 O.3     1  UNL1       -0.3554
      2 O           7.1942    0.1599    0.0000 O.3     1  UNL1       -0.4577
      3 O           5.2566    2.3304    0.0000 O.3     1  UNL1       -0.3820
      4 O           5.9588    2.6129    0.0000 O.3     1  UNL1       -0.4567
      5 O           6.0169   -0.6205    0.0000 O.3     1  UNL1       -0.4529
      6 O           4.6285   -0.8788    0.0000 O.3     1  UNL1       -0.4542
      7 O           3.5575    1.6498    0.0000 O.3     1  UNL1       -0.4539
      8 O           4.3603    0.7719    0.0000 O.3     1  UNL1       -0.4639
      9 O           7.4750   -0.8177    0.0000 O.2     1  UNL1       -0.2929
     10 O          10.0595   -0.5052    0.0000 O.3     1  UNL1       -0.4582
     11 O           8.9938   -0.7128    0.0000 O.2     1  UNL1       -0.2512
     12 O           4.5785    3.6592    0.0000 O.2     1  UNL1       -0.2512
     13 O           6.6394   -2.5212    0.0000 O.2     1  UNL1       -0.2511
     14 O           4.1567   -2.5637    0.0000 O.2     1  UNL1       -0.2505
     15 O           2.2176    0.5522    0.0000 O.2     1  UNL1       -0.2512
     16 O           3.7938   -0.8649    0.0000 O.2     1  UNL1       -0.2512
     17 O          10.7576   -2.1096    0.0000 O.2     1  UNL1       -0.2449
     18 N           7.3791   -2.7016    0.0000 N.ar    1  UNL1       -0.2588
     19 C           6.5455    1.9701    0.0000 C.3     1  UNL1        0.1555
     20 C           6.0611    1.0996    0.0000 C.3     1  UNL1        0.1242
     21 C           7.1222    1.1573    0.0000 C.3     1  UNL1        0.1479
     22 C           5.4821    1.3562    0.0000 C.3     1  UNL1        0.1367
     23 C           8.1062    0.9998    0.0000 C.3     1  UNL1        0.0929
     24 C           8.9078    1.5918    0.0000 C.3     1  UNL1        0.1147
     25 C           5.3547    1.8160    0.0000 C.3     1  UNL1        0.1587
     26 C           6.5449    0.2288    0.0000 C.3     1  UNL1        0.1760
     27 C           4.7966    0.3375    0.0000 C.3     1  UNL1        0.1742
     28 C           4.4930    1.2966    0.0000 C.3     1  UNL1        0.1799
     29 C           7.5399    0.1802    0.0000 C.2     1  UNL1        0.1840
     30 C           5.3053    0.4448    0.0000 C.3     1  UNL1        0.1083
     31 C           4.5908    1.8096    0.0000 C.3     1  UNL1       -0.0295
     32 C           9.7264    0.6766    0.0000 C.3     1  UNL1        0.1222
     33 C           9.4837    2.4094    0.0000 C.3     1  UNL1       -0.0318
     34 C           8.0940   -0.2764    0.0000 C.2     1  UNL1        0.3043
     35 C           5.5707    3.5346    0.0000 C.2     1  UNL1        0.3043
     36 C           6.3281   -1.5708    0.0000 C.2     1  UNL1        0.3046
     37 C           5.0118   -2.0453    0.0000 C.2     1  UNL1        0.3110
     38 C           2.5707    1.4878    0.0000 C.2     1  UNL1        0.3044
     39 C           3.6045    0.1170    0.0000 C.2     1  UNL1        0.3040
     40 C           5.8687   -2.9247    0.0000 C.3     1  UNL1        0.0616
     41 C           9.0638   -0.0322    0.0000 C.3     1  UNL1        0.0332
     42 C           9.8395   -1.7132    0.0000 C.2     1  UNL1        0.3410
     43 C           6.1748    4.3315    0.0000 C.3     1  UNL1        0.0332
     44 C           5.5606   -2.4272    0.0000 C.3     1  UNL1        0.0333
     45 C           7.0249   -3.3382    0.0000 C.3     1  UNL1        0.0119
     46 C           1.9370    2.2614    0.0000 C.3     1  UNL1        0.0332
     47 C           2.6226   -0.0722    0.0000 C.3     1  UNL1        0.0332
     48 C           9.1111   -2.7016    0.0000 C.ar    1  UNL1        0.0805
     49 C           5.3283   -3.7661    0.0000 C.3     1  UNL1       -0.0517
     50 C           8.2451   -3.2016    0.0000 C.ar    1  UNL1        0.0588
     51 C           6.9091   -4.3315    0.0000 C.3     1  UNL1       -0.0562
     52 C           9.1111   -1.7016    0.0000 C.ar    1  UNL1       -0.0446
     53 C           8.2451   -1.2016    0.0000 C.ar    1  UNL1       -0.0428
     54 C           7.3791   -1.7016    0.0000 C.ar    1  UNL1        0.0279
     55 H           6.5971    0.8276    0.0000 H       1  UNL1        0.0772
     56 H           8.8821    0.6527    0.0000 H       1  UNL1        0.0446
     57 H           4.9402    2.2771    0.0000 H       1  UNL1        0.0782
     58 H           6.8328   -0.3203    0.0000 H       1  UNL1        0.0824
     59 H           4.0991   -0.1482    0.0000 H       1  UNL1        0.0803
     60 H           4.0429    0.8703    0.0000 H       1  UNL1        0.0811
     61 H           5.7865    0.0538    0.0000 H       1  UNL1        0.0707
     62 H           5.0038   -0.0970    0.0000 H       1  UNL1        0.0707
     63 H           4.3097    1.2571    0.0000 H       1  UNL1        0.0259
     64 H           4.0383    2.0908    0.0000 H       1  UNL1        0.0259
     65 H           4.8720    2.3622    0.0000 H       1  UNL1        0.0259
     66 H          10.0067    1.2296    0.0000 H       1  UNL1        0.0727
     67 H           9.1829    0.3782    0.0000 H       1  UNL1        0.0727
     68 H           8.9768    2.7664    0.0000 H       1  UNL1        0.0259
     69 H           9.8408    2.9163    0.0000 H       1  UNL1        0.0259
     70 H           9.9906    2.0524    0.0000 H       1  UNL1        0.0259
     71 H           4.6636    2.5113    0.0000 H       1  UNL1        0.2104
     72 H           5.2519   -2.9871    0.0000 H       1  UNL1        0.0417
     73 H           8.9124    0.5690    0.0000 H       1  UNL1        0.0342
     74 H           9.6650    0.1191    0.0000 H       1  UNL1        0.0342
     75 H           9.2151   -0.6335    0.0000 H       1  UNL1        0.0342
     76 H           5.6807    4.7060    0.0000 H       1  UNL1        0.0342
     77 H           6.5493    4.8256    0.0000 H       1  UNL1        0.0342
     78 H           6.6688    3.9570    0.0000 H       1  UNL1        0.0342
     79 H           6.0223   -2.8410    0.0000 H       1  UNL1        0.0342
     80 H           5.1468   -2.8889    0.0000 H       1  UNL1        0.0342
     81 H           5.0989   -2.0134    0.0000 H       1  UNL1        0.0342
     82 H           7.4623   -3.7776    0.0000 H       1  UNL1        0.0369
     83 H           1.4574    1.8685    0.0000 H       1  UNL1        0.0342
     84 H           1.5441    2.7410    0.0000 H       1  UNL1        0.0342
     85 H           2.4166    2.6543    0.0000 H       1  UNL1        0.0342
     86 H           2.7399   -0.6810    0.0000 H       1  UNL1        0.0342
     87 H           2.0138   -0.1895    0.0000 H       1  UNL1        0.0342
     88 H           2.5053    0.5366    0.0000 H       1  UNL1        0.0342
     89 H           5.8500   -4.1012    0.0000 H       1  UNL1        0.0238
     90 H           4.9933   -4.2878    0.0000 H       1  UNL1        0.0238
     91 H           4.8067   -3.4311    0.0000 H       1  UNL1        0.0238
     92 H           7.5250   -4.4032    0.0000 H       1  UNL1        0.0236
     93 H           6.8374   -4.9473    0.0000 H       1  UNL1        0.0236
     94 H           6.2933   -4.2597    0.0000 H       1  UNL1        0.0236
     95 H           9.6481   -1.3916    0.0000 H       1  UNL1        0.0627
     96 H           8.2451   -0.5816    0.0000 H       1  UNL1        0.0633
     97 H           6.8422   -1.3916    0.0000 H       1  UNL1        0.0829
@<TRIPOS>BOND
     1    19     1    1
     2     1    24    1
     3    21     2    1
     4     2    34    1
     5    22     3    1
     6     3    71    1
     7    25     4    1
     8     4    35    1
     9    26     5    1
    10     5    36    1
    11     6    27    1
    12     6    37    1
    13    28     7    1
    14     7    38    1
    15     8    30    1
    16     8    39    1
    17     9    29    2
    18    10    32    1
    19    10    42    1
    20    11    34    2
    21    12    35    2
    22    13    36    2
    23    14    37    2
    24    15    38    2
    25    16    39    2
    26    17    42    2
    27    18    50   ar
    28    18    54   ar
    29    19    20    1
    30    19    21    1
    31    19    22    1
    32    20    25    1
    33    20    26    1
    34    20    30    1
    35    21    23    1
    36    21    55    1
    37    22    27    1
    38    22    31    1
    39    23    24    1
    40    23    29    1
    41    23    56    1
    42    24    32    1
    43    24    33    1
    44    25    28    1
    45    25    57    1
    46    26    29    1
    47    26    58    1
    48    27    28    1
    49    27    59    1
    50    28    60    1
    51    30    61    1
    52    30    62    1
    53    31    63    1
    54    31    64    1
    55    31    65    1
    56    32    66    1
    57    32    67    1
    58    33    68    1
    59    33    69    1
    60    33    70    1
    61    34    41    1
    62    35    43    1
    63    36    44    1
    64    37    40    1
    65    38    46    1
    66    39    47    1
    67    40    45    1
    68    40    49    1
    69    40    72    1
    70    41    73    1
    71    41    74    1
    72    41    75    1
    73    42    48    1
    74    43    76    1
    75    43    77    1
    76    43    78    1
    77    44    79    1
    78    44    80    1
    79    44    81    1
    80    45    50    1
    81    45    51    1
    82    45    82    1
    83    46    83    1
    84    46    84    1
    85    46    85    1
    86    47    86    1
    87    47    87    1
    88    47    88    1
    89    48    50   ar
    90    48    52   ar
    91    49    89    1
    92    49    90    1
    93    49    91    1
    94    51    92    1
    95    51    93    1
    96    51    94    1
    97    52    53   ar
    98    52    95    1
    99    53    54   ar
   100    53    96    1
   101    54    97    1
