@<TRIPOS>MOLECULE
IMPHY006945
 22 22 0 0 0
SMALL
GASTEIGER

@<TRIPOS>ATOM
      1 O           4.2690    2.4050    0.0000 O.3     1  UNL1       -0.3863
      2 O           2.5369    1.4050    0.0000 O.3     1  UNL1       -0.3888
      3 O           6.0010    1.4050    0.0000 O.3     1  UNL1       -0.3851
      4 O           3.4030   -2.0950    0.0000 O.3     1  UNL1       -0.4773
      5 O           5.1350   -2.0950    0.0000 O.2     1  UNL1       -0.2455
      6 C           4.2690    1.4050    0.0000 C.3     1  UNL1        0.1107
      7 C           3.4030    0.9050    0.0000 C.3     1  UNL1        0.0880
      8 C           5.1350    0.9050    0.0000 C.3     1  UNL1        0.1024
      9 C           3.4030   -0.0950    0.0000 C.3     1  UNL1        0.0075
     10 C           4.2690   -0.5950    0.0000 C.2     1  UNL1        0.0375
     11 C           5.1350   -0.0950    0.0000 C.2     1  UNL1       -0.0433
     12 C           4.2690   -1.5950    0.0000 C.2     1  UNL1        0.3326
     13 H           4.8059    1.7150    0.0000 H       1  UNL1        0.0648
     14 H           3.4030    1.5250    0.0000 H       1  UNL1        0.0623
     15 H           5.6720    0.5950    0.0000 H       1  UNL1        0.0665
     16 H           2.7924    0.0127    0.0000 H       1  UNL1        0.0341
     17 H           3.1909   -0.6776    0.0000 H       1  UNL1        0.0341
     18 H           5.6720   -0.4050    0.0000 H       1  UNL1        0.0603
     19 H           4.8059    2.7150    0.0000 H       1  UNL1        0.2100
     20 H           2.0000    1.0950    0.0000 H       1  UNL1        0.2099
     21 H           6.5380    1.0950    0.0000 H       1  UNL1        0.2103
     22 H           3.4030   -2.7150    0.0000 H       1  UNL1        0.2954
@<TRIPOS>BOND
     1     6     1    1
     2     1    19    1
     3     7     2    1
     4     2    20    1
     5     8     3    1
     6     3    21    1
     7     4    12    1
     8     4    22    1
     9     5    12    2
    10     6     7    1
    11     6     8    1
    12     6    13    1
    13     7     9    1
    14     7    14    1
    15     8    11    1
    16     8    15    1
    17     9    10    1
    18     9    16    1
    19     9    17    1
    20    10    11    2
    21    10    12    1
    22    11    18    1
