@<TRIPOS>MOLECULE
IMPHY000639
 97 96 0 0 0
SMALL
GASTEIGER

@<TRIPOS>ATOM
      1 O          21.9186   -0.5950    0.0000 O.3     1  UNL1       -0.3917
      2 O          23.6506   -0.5950    0.0000 O.3     1  UNL1       -0.3917
      3 C          21.9186    0.4050    0.0000 C.3     1  UNL1        0.0576
      4 C          21.0526    0.9050    0.0000 C.3     1  UNL1       -0.0268
      5 C          20.1865    0.4050    0.0000 C.3     1  UNL1       -0.0507
      6 C          19.3205    0.9050    0.0000 C.3     1  UNL1       -0.0530
      7 C          18.4545    0.4050    0.0000 C.3     1  UNL1       -0.0531
      8 C          17.5885    0.9050    0.0000 C.3     1  UNL1       -0.0531
      9 C          16.7224    0.4050    0.0000 C.3     1  UNL1       -0.0531
     10 C          22.7846    0.9050    0.0000 C.3     1  UNL1       -0.0007
     11 C          15.8564    0.9050    0.0000 C.3     1  UNL1       -0.0531
     12 C          14.9904    0.4050    0.0000 C.3     1  UNL1       -0.0531
     13 C          14.1244    0.9050    0.0000 C.3     1  UNL1       -0.0531
     14 C          13.2583    0.4050    0.0000 C.3     1  UNL1       -0.0531
     15 C          12.3923    0.9050    0.0000 C.3     1  UNL1       -0.0531
     16 C          23.6506    0.4050    0.0000 C.3     1  UNL1        0.0576
     17 C          11.5263    0.4050    0.0000 C.3     1  UNL1       -0.0531
     18 C          10.6603    0.9050    0.0000 C.3     1  UNL1       -0.0531
     19 C           9.7942    0.4050    0.0000 C.3     1  UNL1       -0.0531
     20 C           8.9282    0.9050    0.0000 C.3     1  UNL1       -0.0531
     21 C          24.5167    0.9050    0.0000 C.3     1  UNL1       -0.0268
     22 C           8.0622    0.4050    0.0000 C.3     1  UNL1       -0.0531
     23 C           7.1962    0.9050    0.0000 C.3     1  UNL1       -0.0531
     24 C          25.3827    0.4050    0.0000 C.3     1  UNL1       -0.0507
     25 C           6.3301    0.4050    0.0000 C.3     1  UNL1       -0.0531
     26 C           5.4641    0.9050    0.0000 C.3     1  UNL1       -0.0531
     27 C          26.2487    0.9050    0.0000 C.3     1  UNL1       -0.0532
     28 C           4.5981    0.4050    0.0000 C.3     1  UNL1       -0.0531
     29 C           3.7320    0.9050    0.0000 C.3     1  UNL1       -0.0533
     30 C          27.1147    0.4050    0.0000 C.3     1  UNL1       -0.0559
     31 C           2.8660    0.4050    0.0000 C.3     1  UNL1       -0.0559
     32 C          27.9808    0.9050    0.0000 C.3     1  UNL1       -0.0653
     33 C           2.0000    0.9050    0.0000 C.3     1  UNL1       -0.0653
     34 H          22.4555    0.0950    0.0000 H       1  UNL1        0.0594
     35 H          21.4511    1.3800    0.0000 H       1  UNL1        0.0290
     36 H          20.6540    1.3800    0.0000 H       1  UNL1        0.0290
     37 H          19.7880   -0.0699    0.0000 H       1  UNL1        0.0266
     38 H          20.5851   -0.0699    0.0000 H       1  UNL1        0.0266
     39 H          19.7190    1.3800    0.0000 H       1  UNL1        0.0265
     40 H          18.9220    1.3800    0.0000 H       1  UNL1        0.0265
     41 H          18.0560   -0.0699    0.0000 H       1  UNL1        0.0265
     42 H          18.8530   -0.0699    0.0000 H       1  UNL1        0.0265
     43 H          17.9870    1.3800    0.0000 H       1  UNL1        0.0265
     44 H          17.1899    1.3800    0.0000 H       1  UNL1        0.0265
     45 H          16.3239   -0.0699    0.0000 H       1  UNL1        0.0265
     46 H          17.1210   -0.0699    0.0000 H       1  UNL1        0.0265
     47 H          23.1831    1.3800    0.0000 H       1  UNL1        0.0315
     48 H          22.3861    1.3800    0.0000 H       1  UNL1        0.0315
     49 H          16.2549    1.3800    0.0000 H       1  UNL1        0.0265
     50 H          15.4579    1.3800    0.0000 H       1  UNL1        0.0265
     51 H          14.5919   -0.0699    0.0000 H       1  UNL1        0.0265
     52 H          15.3889   -0.0699    0.0000 H       1  UNL1        0.0265
     53 H          14.5229    1.3800    0.0000 H       1  UNL1        0.0265
     54 H          13.7258    1.3800    0.0000 H       1  UNL1        0.0265
     55 H          12.8598   -0.0699    0.0000 H       1  UNL1        0.0265
     56 H          13.6569   -0.0699    0.0000 H       1  UNL1        0.0265
     57 H          12.7908    1.3800    0.0000 H       1  UNL1        0.0265
     58 H          11.9938    1.3800    0.0000 H       1  UNL1        0.0265
     59 H          23.1137    0.0950    0.0000 H       1  UNL1        0.0594
     60 H          11.1278   -0.0699    0.0000 H       1  UNL1        0.0265
     61 H          11.9248   -0.0699    0.0000 H       1  UNL1        0.0265
     62 H          11.0588    1.3800    0.0000 H       1  UNL1        0.0265
     63 H          10.2617    1.3800    0.0000 H       1  UNL1        0.0265
     64 H           9.3957   -0.0699    0.0000 H       1  UNL1        0.0265
     65 H          10.1928   -0.0699    0.0000 H       1  UNL1        0.0265
     66 H           9.3267    1.3800    0.0000 H       1  UNL1        0.0265
     67 H           8.5297    1.3800    0.0000 H       1  UNL1        0.0265
     68 H          24.9152    1.3800    0.0000 H       1  UNL1        0.0290
     69 H          24.1181    1.3800    0.0000 H       1  UNL1        0.0290
     70 H           7.6636   -0.0699    0.0000 H       1  UNL1        0.0265
     71 H           8.4607   -0.0699    0.0000 H       1  UNL1        0.0265
     72 H           7.5947    1.3800    0.0000 H       1  UNL1        0.0265
     73 H           6.7976    1.3800    0.0000 H       1  UNL1        0.0265
     74 H          24.9842   -0.0699    0.0000 H       1  UNL1        0.0266
     75 H          25.7812   -0.0699    0.0000 H       1  UNL1        0.0266
     76 H           5.9316   -0.0699    0.0000 H       1  UNL1        0.0265
     77 H           6.7287   -0.0699    0.0000 H       1  UNL1        0.0265
     78 H           5.8626    1.3800    0.0000 H       1  UNL1        0.0265
     79 H           5.0656    1.3800    0.0000 H       1  UNL1        0.0265
     80 H          26.6472    1.3800    0.0000 H       1  UNL1        0.0265
     81 H          25.8502    1.3800    0.0000 H       1  UNL1        0.0265
     82 H           4.1996   -0.0699    0.0000 H       1  UNL1        0.0265
     83 H           4.9966   -0.0699    0.0000 H       1  UNL1        0.0265
     84 H          21.3816   -0.9050    0.0000 H       1  UNL1        0.2098
     85 H           4.1306    1.3800    0.0000 H       1  UNL1        0.0265
     86 H           3.3335    1.3800    0.0000 H       1  UNL1        0.0265
     87 H          24.1876   -0.9050    0.0000 H       1  UNL1        0.2098
     88 H          26.7162   -0.0699    0.0000 H       1  UNL1        0.0263
     89 H          27.5133   -0.0699    0.0000 H       1  UNL1        0.0263
     90 H           2.4675   -0.0699    0.0000 H       1  UNL1        0.0263
     91 H           3.2646   -0.0699    0.0000 H       1  UNL1        0.0263
     92 H          28.2908    0.3681    0.0000 H       1  UNL1        0.0230
     93 H          28.5177    1.2150    0.0000 H       1  UNL1        0.0230
     94 H          27.6708    1.4419    0.0000 H       1  UNL1        0.0230
     95 H           2.3100    1.4419    0.0000 H       1  UNL1        0.0230
     96 H           1.4631    1.2150    0.0000 H       1  UNL1        0.0230
     97 H           1.6900    0.3681    0.0000 H       1  UNL1        0.0230
@<TRIPOS>BOND
     1     3     1    1
     2     1    84    1
     3    16     2    1
     4     2    87    1
     5     3     4    1
     6     3    10    1
     7     3    34    1
     8     4     5    1
     9     4    35    1
    10     4    36    1
    11     5     6    1
    12     5    37    1
    13     5    38    1
    14     6     7    1
    15     6    39    1
    16     6    40    1
    17     7     8    1
    18     7    41    1
    19     7    42    1
    20     8     9    1
    21     8    43    1
    22     8    44    1
    23     9    11    1
    24     9    45    1
    25     9    46    1
    26    10    16    1
    27    10    47    1
    28    10    48    1
    29    11    12    1
    30    11    49    1
    31    11    50    1
    32    12    13    1
    33    12    51    1
    34    12    52    1
    35    13    14    1
    36    13    53    1
    37    13    54    1
    38    14    15    1
    39    14    55    1
    40    14    56    1
    41    15    17    1
    42    15    57    1
    43    15    58    1
    44    16    21    1
    45    16    59    1
    46    17    18    1
    47    17    60    1
    48    17    61    1
    49    18    19    1
    50    18    62    1
    51    18    63    1
    52    19    20    1
    53    19    64    1
    54    19    65    1
    55    20    22    1
    56    20    66    1
    57    20    67    1
    58    21    24    1
    59    21    68    1
    60    21    69    1
    61    22    23    1
    62    22    70    1
    63    22    71    1
    64    23    25    1
    65    23    72    1
    66    23    73    1
    67    24    27    1
    68    24    74    1
    69    24    75    1
    70    25    26    1
    71    25    76    1
    72    25    77    1
    73    26    28    1
    74    26    78    1
    75    26    79    1
    76    27    30    1
    77    27    80    1
    78    27    81    1
    79    28    29    1
    80    28    82    1
    81    28    83    1
    82    29    31    1
    83    29    85    1
    84    29    86    1
    85    30    32    1
    86    30    88    1
    87    30    89    1
    88    31    33    1
    89    31    90    1
    90    31    91    1
    91    32    92    1
    92    32    93    1
    93    32    94    1
    94    33    95    1
    95    33    96    1
    96    33    97    1
