@<TRIPOS>MOLECULE
IMPHY011503
 49 53 0 0 0
SMALL
GASTEIGER

@<TRIPOS>ATOM
      1 O           6.5824   -1.6303    0.0000 O.3     1  UNL1       -0.4672
      2 O           4.8506   -0.9002    0.0000 O.2     1  UNL1       -0.2497
      3 N           5.6708    1.7815    0.0000 N.3     1  UNL1       -0.2934
      4 N           5.0349   -1.3938    0.0000 N.ar    1  UNL1       -0.3568
      5 C           6.0718    0.0248    0.0000 C.3     1  UNL1        0.1273
      6 C           6.2943    0.9997    0.0000 C.3     1  UNL1        0.0529
      7 C           7.8221   -0.3961    0.0000 C.3     1  UNL1       -0.0084
      8 C           6.8244   -0.6954    0.0000 C.3     1  UNL1       -0.0225
      9 C           7.3751    1.3137    0.0000 C.3     1  UNL1        0.0058
     10 C           7.2848    1.3220    0.0000 C.2     1  UNL1       -0.0550
     11 C           5.1708   -0.4091    0.0000 C.ar    1  UNL1        0.0391
     12 C           8.0538    0.6195    0.0000 C.2     1  UNL1       -0.0789
     13 C           4.6708    1.7815    0.0000 C.3     1  UNL1        0.0036
     14 C           4.2699    0.0248    0.0000 C.ar    1  UNL1       -0.0168
     15 C           4.0474    0.9997    0.0000 C.3     1  UNL1       -0.0126
     16 C           5.8493   -0.9502    0.0000 C.2     1  UNL1        0.3208
     17 C           7.4961    2.2995    0.0000 C.3     1  UNL1       -0.0331
     18 C           3.5848   -0.6955    0.0000 C.ar    1  UNL1        0.0032
     19 C           4.0566   -1.5705    0.0000 C.ar    1  UNL1        0.0470
     20 C           8.4482    2.6053    0.0000 C.3     1  UNL1       -0.0615
     21 C           2.5503   -0.6495    0.0000 C.ar    1  UNL1       -0.0523
     22 C           3.5267   -2.4601    0.0000 C.ar    1  UNL1       -0.0378
     23 C           2.0000   -1.5266    0.0000 C.ar    1  UNL1       -0.0611
     24 C           6.3598   -2.6053    0.0000 C.3     1  UNL1        0.0817
     25 C           2.4915   -2.4380    0.0000 C.ar    1  UNL1       -0.0598
     26 H           6.4835    1.8284    0.0000 H       1  UNL1        0.0524
     27 H           8.0371   -1.2184    0.0000 H       1  UNL1        0.0356
     28 H           6.3254   -1.0634    0.0000 H       1  UNL1        0.0286
     29 H           7.1015   -1.2500    0.0000 H       1  UNL1        0.0286
     30 H           7.9930    1.3640    0.0000 H       1  UNL1        0.0432
     31 H           7.4329    1.9310    0.0000 H       1  UNL1        0.0432
     32 H           8.6456    0.8045    0.0000 H       1  UNL1        0.0575
     33 H           4.8088    2.3860    0.0000 H       1  UNL1        0.0430
     34 H           4.1123    2.0505    0.0000 H       1  UNL1        0.0430
     35 H           3.6608    1.4844    0.0000 H       1  UNL1        0.0326
     36 H           3.4888    0.7307    0.0000 H       1  UNL1        0.0326
     37 H           7.4119    2.9137    0.0000 H       1  UNL1        0.0308
     38 H           6.8765    2.3232    0.0000 H       1  UNL1        0.0308
     39 H           5.4822   -1.8231    0.0000 H       1  UNL1        0.1656
     40 H           8.6378    2.0149    0.0000 H       1  UNL1        0.0233
     41 H           9.0385    2.7948    0.0000 H       1  UNL1        0.0233
     42 H           8.2586    3.1956    0.0000 H       1  UNL1        0.0233
     43 H           2.2624   -0.1004    0.0000 H       1  UNL1        0.0624
     44 H           3.8272   -3.0024    0.0000 H       1  UNL1        0.0638
     45 H           1.3803   -1.5062    0.0000 H       1  UNL1        0.0618
     46 H           5.7554   -2.4673    0.0000 H       1  UNL1        0.0661
     47 H           6.2219   -3.2097    0.0000 H       1  UNL1        0.0661
     48 H           6.9643   -2.7432    0.0000 H       1  UNL1        0.0661
     49 H           2.1680   -2.9670    0.0000 H       1  UNL1        0.0618
@<TRIPOS>BOND
     1     1    16    1
     2     1    24    1
     3     2    16    2
     4     3     6    1
     5     3     9    1
     6     3    13    1
     7     4    11   ar
     8     4    19   ar
     9     4    39    1
    10     5     6    1
    11     5     8    1
    12     5    11    1
    13     5    16    1
    14     6    10    1
    15     6    26    1
    16     7     8    1
    17     7     9    1
    18     7    12    1
    19     7    27    1
    20     8    28    1
    21     8    29    1
    22     9    30    1
    23     9    31    1
    24    10    12    2
    25    10    17    1
    26    11    14   ar
    27    12    32    1
    28    13    15    1
    29    13    33    1
    30    13    34    1
    31    14    15    1
    32    14    18   ar
    33    15    35    1
    34    15    36    1
    35    17    20    1
    36    17    37    1
    37    17    38    1
    38    18    19   ar
    39    18    21   ar
    40    19    22   ar
    41    20    40    1
    42    20    41    1
    43    20    42    1
    44    21    23   ar
    45    21    43    1
    46    22    25   ar
    47    22    44    1
    48    23    25   ar
    49    23    45    1
    50    24    46    1
    51    24    47    1
    52    24    48    1
    53    25    49    1
