@<TRIPOS>MOLECULE
IMPHY003156
 47 52 0 0 0
SMALL
GASTEIGER

@<TRIPOS>ATOM
      1 O           3.8076    1.8817    0.0000 O.3     1  UNL1       -0.3905
      2 O           7.6812    0.2939    0.0000 O.3     1  UNL1       -0.3769
      3 N           6.1798   -0.2724    0.0000 N.3     1  UNL1       -0.2694
      4 N           4.0899   -1.2279    0.0000 N.pl3   1  UNL1       -0.3383
      5 C           4.5153    0.0814    0.0000 C.3     1  UNL1        0.0448
      6 C           6.4862    1.1691    0.0000 C.3     1  UNL1        0.0049
      7 C           5.9169    0.5368    0.0000 C.3     1  UNL1        0.0195
      8 C           6.7056   -1.8908    0.0000 C.3     1  UNL1       -0.0265
      9 C           5.6105   -0.9047    0.0000 C.3     1  UNL1        0.0324
     10 C           4.7782   -0.7278    0.0000 C.3     1  UNL1        0.0483
     11 C           4.5142    1.1740    0.0000 C.3     1  UNL1        0.0712
     12 C           5.0846    0.7137    0.0000 C.3     1  UNL1       -0.0230
     13 C           5.8734   -1.7139    0.0000 C.3     1  UNL1       -0.0319
     14 C           7.2750   -1.2585    0.0000 C.3     1  UNL1        0.0018
     15 C           7.0121   -0.4493    0.0000 C.3     1  UNL1        0.1123
     16 C           3.6645    0.0814    0.0000 C.ar    1  UNL1       -0.0161
     17 C           3.4016   -0.7278    0.0000 C.ar    1  UNL1        0.0313
     18 C           8.2531   -1.4664    0.0000 C.3     1  UNL1       -0.0492
     19 C           3.0952    0.7137    0.0000 C.ar    1  UNL1       -0.0561
     20 C           2.5693   -0.9047    0.0000 C.ar    1  UNL1       -0.0406
     21 C           8.5621   -2.4174    0.0000 C.3     1  UNL1       -0.0649
     22 C           2.2629    0.5368    0.0000 C.ar    1  UNL1       -0.0614
     23 C           2.0000   -0.2724    0.0000 C.ar    1  UNL1       -0.0600
     24 H           7.0661    1.7906    0.0000 H       1  UNL1        0.0344
     25 H           5.7347    1.3671    0.0000 H       1  UNL1        0.0467
     26 H           6.9683   -2.6992    0.0000 H       1  UNL1        0.0309
     27 H           5.2921   -1.6928    0.0000 H       1  UNL1        0.0482
     28 H           4.7788   -1.5778    0.0000 H       1  UNL1        0.0522
     29 H           4.7523    1.7465    0.0000 H       1  UNL1        0.0606
     30 H           5.3169    1.2886    0.0000 H       1  UNL1        0.0290
     31 H           4.5588    1.0423    0.0000 H       1  UNL1        0.0290
     32 H           5.2594   -1.8002    0.0000 H       1  UNL1        0.0284
     33 H           5.8518   -2.3335    0.0000 H       1  UNL1        0.0284
     34 H           7.4666   -1.8481    0.0000 H       1  UNL1        0.0342
     35 H           7.6185   -0.5782    0.0000 H       1  UNL1        0.0770
     36 H           4.0951   -1.8479    0.0000 H       1  UNL1        0.1464
     37 H           8.8671   -1.3801    0.0000 H       1  UNL1        0.0267
     38 H           8.2748   -0.8468    0.0000 H       1  UNL1        0.0267
     39 H           3.9684    2.4804    0.0000 H       1  UNL1        0.2098
     40 H           3.2868    1.3034    0.0000 H       1  UNL1        0.0621
     41 H           8.2876    0.1650    0.0000 H       1  UNL1        0.2115
     42 H           2.3777   -1.4943    0.0000 H       1  UNL1        0.0636
     43 H           7.9725   -2.6090    0.0000 H       1  UNL1        0.0230
     44 H           8.7537   -3.0071    0.0000 H       1  UNL1        0.0230
     45 H           9.1518   -2.2259    0.0000 H       1  UNL1        0.0230
     46 H           1.8481    0.9976    0.0000 H       1  UNL1        0.0618
     47 H           1.3936   -0.4013    0.0000 H       1  UNL1        0.0618
@<TRIPOS>BOND
     1    11     1    1
     2     1    39    1
     3    15     2    1
     4     2    41    1
     5     3     7    1
     6     3     9    1
     7     3    15    1
     8     4    10    1
     9     4    17    1
    10     4    36    1
    11     5    10    1
    12     5    11    1
    13     5    12    1
    14     5    16    1
    15     6     7    1
    16     6     8    1
    17     6    11    1
    18     6    24    1
    19     7    12    1
    20     7    25    1
    21     8    13    1
    22     8    14    1
    23     8    26    1
    24     9    10    1
    25     9    13    1
    26     9    27    1
    27    10    28    1
    28    11    29    1
    29    12    30    1
    30    12    31    1
    31    13    32    1
    32    13    33    1
    33    14    15    1
    34    14    18    1
    35    14    34    1
    36    15    35    1
    37    16    17   ar
    38    16    19   ar
    39    17    20   ar
    40    18    21    1
    41    18    37    1
    42    18    38    1
    43    19    22   ar
    44    19    40    1
    45    20    23   ar
    46    20    42    1
    47    21    43    1
    48    21    44    1
    49    21    45    1
    50    22    23   ar
    51    22    46    1
    52    23    47    1
