@<TRIPOS>MOLECULE
IMPHY000284
 50 51 0 0 0
SMALL
GASTEIGER

@<TRIPOS>ATOM
      1 O           6.8950   -0.9397    0.0000 O.3     1  UNL1       -0.4812
      2 O           5.1350    2.0950    0.0000 O.3     1  UNL1       -0.5052
      3 O           2.5369    0.5950    0.0000 O.3     1  UNL1       -0.4770
      4 O           3.4030    2.0950    0.0000 O.2     1  UNL1       -0.2450
      5 C           7.8010   -0.4258    0.0000 C.3     1  UNL1        0.1266
      6 C           8.8010   -0.4297    0.0000 C.3     1  UNL1       -0.0060
      7 C           7.8010    0.6158    0.0000 C.2     1  UNL1       -0.0405
      8 C           8.2977   -1.2938    0.0000 C.3     1  UNL1       -0.0212
      9 C           6.0010   -0.4050    0.0000 C.ar    1  UNL1        0.1327
     10 C           9.3044    0.4344    0.0000 C.3     1  UNL1       -0.0306
     11 C           6.0010    0.5950    0.0000 C.ar    1  UNL1        0.0587
     12 C           6.8950    1.1297    0.0000 C.2     1  UNL1       -0.0478
     13 C           4.2690   -0.4050    0.0000 C.ar    1  UNL1       -0.0264
     14 C           5.1350   -0.9050    0.0000 C.ar    1  UNL1       -0.0151
     15 C           5.1350    1.0950    0.0000 C.ar    1  UNL1        0.1417
     16 C           4.2690    0.5950    0.0000 C.ar    1  UNL1        0.1041
     17 C           3.4030   -0.9050    0.0000 C.3     1  UNL1       -0.0269
     18 C          10.3044    0.4306    0.0000 C.2     1  UNL1       -0.0851
     19 C           3.4030   -1.9050    0.0000 C.3     1  UNL1       -0.0519
     20 C          10.8077    1.2947    0.0000 C.2     1  UNL1       -0.0796
     21 C           3.4030    1.0950    0.0000 C.2     1  UNL1        0.3406
     22 C           2.5369   -2.4050    0.0000 C.3     1  UNL1       -0.0650
     23 C          11.8077    1.2908    0.0000 C.3     1  UNL1       -0.0440
     24 C          10.3110    2.1626    0.0000 C.3     1  UNL1       -0.0440
     25 H           8.6910   -1.0398    0.0000 H       1  UNL1        0.0310
     26 H           9.3828   -0.6440    0.0000 H       1  UNL1        0.0310
     27 H           8.3368    0.9279    0.0000 H       1  UNL1        0.0611
     28 H           7.7596   -1.6017    0.0000 H       1  UNL1        0.0271
     29 H           8.6056   -1.8319    0.0000 H       1  UNL1        0.0271
     30 H           8.8358   -0.9858    0.0000 H       1  UNL1        0.0271
     31 H           9.4144    1.0446    0.0000 H       1  UNL1        0.0309
     32 H           8.7226    0.6487    0.0000 H       1  UNL1        0.0309
     33 H           6.8878    1.7496    0.0000 H       1  UNL1        0.0624
     34 H           5.1350   -1.5250    0.0000 H       1  UNL1        0.0657
     35 H           3.1909   -0.3224    0.0000 H       1  UNL1        0.0313
     36 H           2.7924   -1.0127    0.0000 H       1  UNL1        0.0313
     37 H          10.6123   -0.1076    0.0000 H       1  UNL1        0.0571
     38 H           3.6150   -2.4876    0.0000 H       1  UNL1        0.0266
     39 H           4.0135   -1.7973    0.0000 H       1  UNL1        0.0266
     40 H           2.2269   -1.8681    0.0000 H       1  UNL1        0.0230
     41 H           2.0000   -2.7150    0.0000 H       1  UNL1        0.0230
     42 H           2.8469   -2.9419    0.0000 H       1  UNL1        0.0230
     43 H           5.6720    2.4050    0.0000 H       1  UNL1        0.2922
     44 H          11.8053    0.6708    0.0000 H       1  UNL1        0.0274
     45 H          12.4277    1.2884    0.0000 H       1  UNL1        0.0274
     46 H          11.8101    1.9108    0.0000 H       1  UNL1        0.0274
     47 H          10.8492    2.4705    0.0000 H       1  UNL1        0.0274
     48 H          10.0031    2.7007    0.0000 H       1  UNL1        0.0274
     49 H           9.7729    1.8547    0.0000 H       1  UNL1        0.0274
     50 H           2.0000    0.9050    0.0000 H       1  UNL1        0.2954
@<TRIPOS>BOND
     1     1     5    1
     2     1     9    1
     3     2    15    1
     4     2    43    1
     5     3    21    1
     6     3    50    1
     7     4    21    2
     8     5     6    1
     9     5     7    1
    10     5     8    1
    11     6    10    1
    12     6    25    1
    13     6    26    1
    14     7    12    2
    15     7    27    1
    16     8    28    1
    17     8    29    1
    18     8    30    1
    19     9    11   ar
    20     9    14   ar
    21    10    18    1
    22    10    31    1
    23    10    32    1
    24    11    12    1
    25    11    15   ar
    26    12    33    1
    27    13    14   ar
    28    13    16   ar
    29    13    17    1
    30    14    34    1
    31    15    16   ar
    32    16    21    1
    33    17    19    1
    34    17    35    1
    35    17    36    1
    36    18    20    2
    37    18    37    1
    38    19    22    1
    39    19    38    1
    40    19    39    1
    41    20    23    1
    42    20    24    1
    43    22    40    1
    44    22    41    1
    45    22    42    1
    46    23    44    1
    47    23    45    1
    48    23    46    1
    49    24    47    1
    50    24    48    1
    51    24    49    1
