@<TRIPOS>MOLECULE
IMPHY012140
 15 15 0 0 0
SMALL
GASTEIGER

@<TRIPOS>ATOM
      1 O           2.8660    1.5000    0.0000 O.2     1  UNL1       -0.2927
      2 C           3.7320   -1.0000    0.0000 C.3     1  UNL1       -0.0426
      3 C           3.7320   -0.0000    0.0000 C.3     1  UNL1        0.0101
      4 C           2.8660   -1.5000    0.0000 C.3     1  UNL1       -0.0340
      5 C           2.8660    0.5000    0.0000 C.2     1  UNL1        0.1558
      6 C           2.0000   -1.0000    0.0000 C.2     1  UNL1       -0.0807
      7 C           2.0000    0.0000    0.0000 C.2     1  UNL1       -0.0231
      8 H           3.9441   -1.5826    0.0000 H       1  UNL1        0.0272
      9 H           4.3426   -0.8923    0.0000 H       1  UNL1        0.0272
     10 H           4.3426   -0.1077    0.0000 H       1  UNL1        0.0345
     11 H           3.9441    0.5826    0.0000 H       1  UNL1        0.0345
     12 H           2.4675   -1.9750    0.0000 H       1  UNL1        0.0308
     13 H           3.2646   -1.9750    0.0000 H       1  UNL1        0.0308
     14 H           1.4631   -1.3100    0.0000 H       1  UNL1        0.0573
     15 H           1.4631    0.3100    0.0000 H       1  UNL1        0.0649
@<TRIPOS>BOND
     1     1     5    2
     2     2     3    1
     3     2     4    1
     4     2     8    1
     5     2     9    1
     6     3     5    1
     7     3    10    1
     8     3    11    1
     9     4     6    1
    10     4    12    1
    11     4    13    1
    12     5     7    1
    13     6     7    2
    14     6    14    1
    15     7    15    1
