@<TRIPOS>MOLECULE
IMPHY000494
 32 35 0 0 0
SMALL
GASTEIGER

@<TRIPOS>ATOM
      1 C           2.6158    2.2829    0.0000 C.3     1  UNL1        0.0290
      2 C           3.4739    2.7887    0.0000 C.3     1  UNL1        0.0024
      3 C           2.6158    1.2711    0.0000 C.3     1  UNL1        0.0089
      4 C           1.7546    2.7887    0.0000 C.3     1  UNL1        0.1592
      5 C           2.6158    3.2850    0.0000 C.3     1  UNL1        0.0025
      6 C           4.3352    2.2829    0.0000 C.3     1  UNL1        0.0001
      7 C           3.4739    3.7749    0.0000 C.3     1  UNL1        0.0001
      8 C           1.7546    0.7652    0.0000 C.3     1  UNL1        0.0517
      9 C           3.4739    0.7908    0.0000 C.3     1  UNL1        0.0005
     10 C           0.8709    2.2829    0.0000 C.3     1  UNL1        0.0973
     11 O           1.7610    3.7909    0.0000 O.3     1  UNL1       -0.2227
     12 C           5.1964    2.7887    0.0000 C.3     1  UNL1        0.0000
     13 C           4.3352    1.2967    0.0000 C.3     1  UNL1        0.0000
     14 C           4.3352    4.2839    0.0000 C.3     1  UNL1        0.0000
     15 C           0.8709    1.2967    0.0000 C.2     1  UNL1        0.1524
     16 C           1.1046    0.0064    0.0000 C.3     1  UNL1        0.0073
     17 C           2.3981    0.0000    0.0000 C.3     1  UNL1        0.0073
     18 C           5.1964    3.7749    0.0000 C.3     1  UNL1        0.0000
     19 C           6.1346    2.4846    0.0000 C.3     1  UNL1        0.0000
     20 C           5.3053    1.7962    0.0000 C.3     1  UNL1        0.0000
     21 O           0.0000    0.8068    0.0000 O.2     1  UNL1       -0.2960
     22 C           6.1346    4.0822    0.0000 C.3     1  UNL1        0.0000
     23 C           5.3053    4.7706    0.0000 C.3     1  UNL1        0.0000
     24 C           6.7141    3.2818    0.0000 C.3     1  UNL1        0.0000
     25 C           6.9990    4.5817    0.0000 C.3     1  UNL1        0.0000
     26 C           7.8667    4.0822    0.0000 C.3     1  UNL1        0.0003
     27 C           6.9990    5.5807    0.0000 C.3     1  UNL1        0.0000
     28 C           8.6319    4.7226    0.0000 C.3     1  UNL1        0.0043
     29 C           9.4996    4.2231    0.0000 C.3     1  UNL1        0.0220
     30 C          10.2648    4.8667    0.0000 C.2     1  UNL1       -0.0439
     31 C          11.2061    4.5241    0.0000 C.3     1  UNL1        0.0264
     32 C          10.0919    5.8528    0.0000 C.2     1  UNL1       -0.0091
@<TRIPOS>BOND
     1     1     2    1
     2     1     3    1
     3     1     4    1
     4     1     5    1
     5     2     6    1
     6     2     7    1
     7     3     8    1
     8     3     9    1
     9     4    10    1
    10     4    11    1
    11     6    12    1
    12     6    13    1
    13     7    14    1
    14     8    15    1
    15     8    16    1
    16     8    17    1
    17     9    13    1
    18    10    15    1
    19    12    18    1
    20    12    19    1
    21    12    20    1
    22    14    18    1
    23    15    21    2
    24    18    22    1
    25    18    23    1
    26    19    24    1
    27    22    24    1
    28    22    25    1
    29    25    26    1
    30    25    27    1
    31    26    28    1
    32    28    29    1
    33    29    30    1
    34    30    31    1
    35    30    32    2
