@<TRIPOS>MOLECULE
IMPHY006112
 38 41 0 0 0
SMALL
GASTEIGER

@<TRIPOS>ATOM
      1 O           4.2864   -2.4065    0.0000 O.3     1  UNL1       -0.4814
      2 O           2.5405    0.7508    0.0000 O.3     1  UNL1       -0.5059
      3 O           3.4446    2.2477    0.0000 O.2     1  UNL1       -0.2864
      4 O           7.8129    1.7446    0.0000 O.3     1  UNL1       -0.5047
      5 N           6.0427    0.7477    0.0000 N.ar    1  UNL1       -0.3505
      6 C           5.2260   -2.9490    0.0000 C.3     1  UNL1        0.1235
      7 C           5.1928   -0.7938    0.0000 C.ar    1  UNL1        0.0407
      8 C           5.1767    0.2477    0.0000 C.ar    1  UNL1        0.0649
      9 C           4.2947   -1.3216    0.0000 C.ar    1  UNL1        0.1343
     10 C           4.3107    0.7477    0.0000 C.ar    1  UNL1        0.0877
     11 C           6.1614   -2.3993    0.0000 C.2     1  UNL1       -0.0408
     12 C           6.1447   -1.3144    0.0000 C.2     1  UNL1       -0.0493
     13 C           5.7293   -3.8131    0.0000 C.3     1  UNL1       -0.0215
     14 C           4.7293   -3.8170    0.0000 C.3     1  UNL1       -0.0215
     15 C           6.0427    1.7477    0.0000 C.ar    1  UNL1        0.0926
     16 C           3.4007    0.2409    0.0000 C.ar    1  UNL1        0.1332
     17 C           3.3926   -0.8007    0.0000 C.ar    1  UNL1        0.0230
     18 C           5.1767    2.2477    0.0000 C.ar    1  UNL1        0.0493
     19 C           4.3107    1.7477    0.0000 C.ar    1  UNL1        0.2007
     20 C           6.9527    2.2546    0.0000 C.ar    1  UNL1        0.1408
     21 C           5.1606    3.2892    0.0000 C.ar    1  UNL1       -0.0487
     22 C           6.9608    3.2962    0.0000 C.ar    1  UNL1       -0.0181
     23 C           6.0587    3.8170    0.0000 C.ar    1  UNL1       -0.0575
     24 H           6.7019   -2.7031    0.0000 H       1  UNL1        0.0611
     25 H           6.6756   -0.9941    0.0000 H       1  UNL1        0.0623
     26 H           6.5797    0.4377    0.0000 H       1  UNL1        0.1660
     27 H           5.1936   -4.1252    0.0000 H       1  UNL1        0.0271
     28 H           6.0414   -4.3488    0.0000 H       1  UNL1        0.0271
     29 H           4.1912   -3.5090    0.0000 H       1  UNL1        0.0271
     30 H           4.4214   -4.3551    0.0000 H       1  UNL1        0.0271
     31 H           5.2675   -4.1249    0.0000 H       1  UNL1        0.0271
     32 H           6.2651   -3.5010    0.0000 H       1  UNL1        0.0271
     33 H           2.8545   -1.1087    0.0000 H       1  UNL1        0.0691
     34 H           4.6202    3.5930    0.0000 H       1  UNL1        0.0625
     35 H           7.4989    3.6041    0.0000 H       1  UNL1        0.0655
     36 H           6.0563    4.4370    0.0000 H       1  UNL1        0.0619
     37 H           2.0000    0.4471    0.0000 H       1  UNL1        0.2922
     38 H           8.3534    2.0483    0.0000 H       1  UNL1        0.2922
@<TRIPOS>BOND
     1     1     6    1
     2     1     9    1
     3     2    16    1
     4     2    37    1
     5     3    19    2
     6     4    20    1
     7     4    38    1
     8     5     8   ar
     9     5    15   ar
    10     5    26    1
    11     6    11    1
    12     6    13    1
    13     6    14    1
    14     7     8   ar
    15     7     9   ar
    16     7    12    1
    17     8    10   ar
    18     9    17   ar
    19    10    16   ar
    20    10    19   ar
    21    11    12    2
    22    11    24    1
    23    12    25    1
    24    13    27    1
    25    13    28    1
    26    13    32    1
    27    14    29    1
    28    14    30    1
    29    14    31    1
    30    15    18   ar
    31    15    20   ar
    32    16    17   ar
    33    17    33    1
    34    18    19   ar
    35    18    21   ar
    36    20    22   ar
    37    21    23   ar
    38    21    34    1
    39    22    23   ar
    40    22    35    1
    41    23    36    1
