@<TRIPOS>MOLECULE
IMPHY013061
 48 47 0 0 0
SMALL
GASTEIGER

@<TRIPOS>ATOM
      1 O           2.5369    0.4400    0.0000 O.3     1  UNL1       -0.4775
      2 O           3.4030   -1.0600    0.0000 O.2     1  UNL1       -0.2458
      3 C          14.6613    0.4400    0.0000 C.3     1  UNL1       -0.0531
      4 C          13.7953   -0.0600    0.0000 C.3     1  UNL1       -0.0530
      5 C          15.5273   -0.0600    0.0000 C.3     1  UNL1       -0.0531
      6 C          12.9292    0.4400    0.0000 C.3     1  UNL1       -0.0528
      7 C          16.3933    0.4400    0.0000 C.3     1  UNL1       -0.0533
      8 C          12.0632   -0.0600    0.0000 C.3     1  UNL1       -0.0496
      9 C          17.2594   -0.0600    0.0000 C.3     1  UNL1       -0.0559
     10 C          11.1972    0.4400    0.0000 C.3     1  UNL1       -0.0345
     11 C          18.1254    0.4400    0.0000 C.3     1  UNL1       -0.0653
     12 C          10.3312   -0.0600    0.0000 C.2     1  UNL1       -0.0840
     13 C           9.4651    0.4400    0.0000 C.2     1  UNL1       -0.0657
     14 C           8.5991   -0.0600    0.0000 C.2     1  UNL1       -0.0621
     15 C           7.7331    0.4400    0.0000 C.2     1  UNL1       -0.0618
     16 C           6.8671   -0.0600    0.0000 C.2     1  UNL1       -0.0618
     17 C           6.0010    0.4400    0.0000 C.2     1  UNL1       -0.0615
     18 C           5.1350   -0.0600    0.0000 C.2     1  UNL1       -0.0550
     19 C           4.2690    0.4400    0.0000 C.2     1  UNL1        0.0223
     20 C           3.4030   -0.0600    0.0000 C.2     1  UNL1        0.3295
     21 H          15.0598    0.9149    0.0000 H       1  UNL1        0.0265
     22 H          14.2628    0.9149    0.0000 H       1  UNL1        0.0265
     23 H          13.3967   -0.5349    0.0000 H       1  UNL1        0.0265
     24 H          14.1938   -0.5349    0.0000 H       1  UNL1        0.0265
     25 H          15.1288   -0.5349    0.0000 H       1  UNL1        0.0265
     26 H          15.9258   -0.5349    0.0000 H       1  UNL1        0.0265
     27 H          13.3278    0.9149    0.0000 H       1  UNL1        0.0265
     28 H          12.5307    0.9149    0.0000 H       1  UNL1        0.0265
     29 H          16.7919    0.9149    0.0000 H       1  UNL1        0.0265
     30 H          15.9948    0.9149    0.0000 H       1  UNL1        0.0265
     31 H          11.6647   -0.5349    0.0000 H       1  UNL1        0.0268
     32 H          12.4617   -0.5349    0.0000 H       1  UNL1        0.0268
     33 H          16.8608   -0.5349    0.0000 H       1  UNL1        0.0263
     34 H          17.6579   -0.5349    0.0000 H       1  UNL1        0.0263
     35 H          11.5957    0.9149    0.0000 H       1  UNL1        0.0307
     36 H          10.7987    0.9149    0.0000 H       1  UNL1        0.0307
     37 H          18.4354   -0.0969    0.0000 H       1  UNL1        0.0230
     38 H          18.6623    0.7500    0.0000 H       1  UNL1        0.0230
     39 H          17.8154    0.9769    0.0000 H       1  UNL1        0.0230
     40 H          10.3312   -0.6800    0.0000 H       1  UNL1        0.0572
     41 H           9.4651    1.0600    0.0000 H       1  UNL1        0.0614
     42 H           8.5991   -0.6800    0.0000 H       1  UNL1        0.0617
     43 H           7.7331    1.0600    0.0000 H       1  UNL1        0.0618
     44 H           6.8671   -0.6800    0.0000 H       1  UNL1        0.0618
     45 H           6.0010    1.0600    0.0000 H       1  UNL1        0.0618
     46 H           5.1350   -0.6800    0.0000 H       1  UNL1        0.0620
     47 H           4.2690    1.0600    0.0000 H       1  UNL1        0.0689
     48 H           2.0000    0.1300    0.0000 H       1  UNL1        0.2954
@<TRIPOS>BOND
     1     1    20    1
     2     1    48    1
     3     2    20    2
     4     3     4    1
     5     3     5    1
     6     3    21    1
     7     3    22    1
     8     4     6    1
     9     4    23    1
    10     4    24    1
    11     5     7    1
    12     5    25    1
    13     5    26    1
    14     6     8    1
    15     6    27    1
    16     6    28    1
    17     7     9    1
    18     7    29    1
    19     7    30    1
    20     8    10    1
    21     8    31    1
    22     8    32    1
    23     9    11    1
    24     9    33    1
    25     9    34    1
    26    10    12    1
    27    10    35    1
    28    10    36    1
    29    11    37    1
    30    11    38    1
    31    11    39    1
    32    12    13    2
    33    12    40    1
    34    13    14    1
    35    13    41    1
    36    14    15    2
    37    14    42    1
    38    15    16    1
    39    15    43    1
    40    16    17    2
    41    16    44    1
    42    17    18    1
    43    17    45    1
    44    18    19    2
    45    18    46    1
    46    19    20    1
    47    19    47    1
