@<TRIPOS>MOLECULE
IMPHY006820
 80 84 0 0 0
SMALL
GASTEIGER

@<TRIPOS>ATOM
      1 O           2.5357   -2.5933    0.0000 O.3     1  UNL1       -0.3912
      2 O          11.4608    0.4932    0.0000 O.2     1  UNL1       -0.3004
      3 C           6.1968   -0.5410    0.0000 C.3     1  UNL1       -0.0262
      4 C           5.2868   -1.0478    0.0000 C.3     1  UNL1       -0.0250
      5 C           7.0628   -1.0410    0.0000 C.3     1  UNL1       -0.0072
      6 C           5.2787   -2.0894    0.0000 C.3     1  UNL1       -0.0278
      7 C           7.9288    0.4590    0.0000 C.3     1  UNL1       -0.0068
      8 C           7.9288   -0.5410    0.0000 C.2     1  UNL1       -0.0611
      9 C           8.8228    0.9937    0.0000 C.3     1  UNL1       -0.0191
     10 C           6.1968    0.4590    0.0000 C.3     1  UNL1       -0.0481
     11 C           7.0789   -2.0825    0.0000 C.3     1  UNL1       -0.0433
     12 C           4.3433   -2.6391    0.0000 C.3     1  UNL1       -0.0056
     13 C           7.0628    0.9590    0.0000 C.3     1  UNL1       -0.0433
     14 C           6.1808   -2.6102    0.0000 C.3     1  UNL1       -0.0483
     15 C           9.7288    0.4799    0.0000 C.3     1  UNL1        0.0330
     16 C           4.3599   -0.4837    0.0000 C.3     1  UNL1       -0.0447
     17 C           3.4037   -2.0966    0.0000 C.3     1  UNL1        0.0606
     18 C           8.7977    2.0784    0.0000 C.3     1  UNL1       -0.0433
     19 C           5.2945   -0.0478    0.0000 C.3     1  UNL1       -0.0590
     20 C           7.9288   -1.5410    0.0000 C.3     1  UNL1       -0.0556
     21 C           3.4120   -1.0117    0.0000 C.3     1  UNL1       -0.0258
     22 C           9.7288   -0.5618    0.0000 C.3     1  UNL1       -0.0221
     23 C           8.8228   -1.0756    0.0000 C.2     1  UNL1       -0.0828
     24 C           7.9288    1.4590    0.0000 C.3     1  UNL1       -0.0555
     25 C           9.7288    2.6353    0.0000 C.3     1  UNL1       -0.0345
     26 C          10.6726    1.0151    0.0000 C.3     1  UNL1       -0.0399
     27 C          10.6726    2.1001    0.0000 C.3     1  UNL1       -0.0470
     28 C           3.8467   -3.5071    0.0000 C.3     1  UNL1       -0.0572
     29 C           4.8466   -3.5032    0.0000 C.3     1  UNL1       -0.0572
     30 C          10.5987   -0.0135    0.0000 C.2     1  UNL1        0.1270
     31 C          10.2188    3.5071    0.0000 C.3     1  UNL1       -0.0598
     32 C           9.2188    3.4955    0.0000 C.3     1  UNL1       -0.0598
     33 H           6.9329   -0.1160    0.0000 H       1  UNL1        0.0314
     34 H           5.2820   -2.9394    0.0000 H       1  UNL1        0.0312
     35 H           9.5522    1.4300    0.0000 H       1  UNL1        0.0319
     36 H           5.9847    1.0416    0.0000 H       1  UNL1        0.0269
     37 H           5.5862    0.3514    0.0000 H       1  UNL1        0.0269
     38 H           7.2969   -2.6629    0.0000 H       1  UNL1        0.0274
     39 H           7.6880   -1.9670    0.0000 H       1  UNL1        0.0274
     40 H           7.4613    1.4340    0.0000 H       1  UNL1        0.0274
     41 H           6.6643    1.4340    0.0000 H       1  UNL1        0.0274
     42 H           5.7835   -3.0862    0.0000 H       1  UNL1        0.0269
     43 H           6.5818   -3.0831    0.0000 H       1  UNL1        0.0269
     44 H           4.7681   -0.0171    0.0000 H       1  UNL1        0.0271
     45 H           3.9700   -0.0017    0.0000 H       1  UNL1        0.0271
     46 H           3.4025   -2.7166    0.0000 H       1  UNL1        0.0599
     47 H           8.5752    2.6571    0.0000 H       1  UNL1        0.0274
     48 H           8.1894    1.9582    0.0000 H       1  UNL1        0.0274
     49 H           5.9145   -0.0526    0.0000 H       1  UNL1        0.0235
     50 H           5.2993    0.5721    0.0000 H       1  UNL1        0.0235
     51 H           4.6745   -0.0431    0.0000 H       1  UNL1        0.0235
     52 H           7.6188   -2.0779    0.0000 H       1  UNL1        0.0238
     53 H           8.4658   -1.8510    0.0000 H       1  UNL1        0.0238
     54 H           8.2388   -1.0040    0.0000 H       1  UNL1        0.0238
     55 H           3.2075   -0.4264    0.0000 H       1  UNL1        0.0290
     56 H           2.8004   -1.1131    0.0000 H       1  UNL1        0.0290
     57 H           9.9379   -1.1455    0.0000 H       1  UNL1        0.0317
     58 H          10.3397   -0.4557    0.0000 H       1  UNL1        0.0317
     59 H           8.8156   -1.6956    0.0000 H       1  UNL1        0.0572
     60 H           8.5488    1.4590    0.0000 H       1  UNL1        0.0238
     61 H           7.9288    2.0790    0.0000 H       1  UNL1        0.0238
     62 H           7.3088    1.4590    0.0000 H       1  UNL1        0.0238
     63 H          10.8817    0.4314    0.0000 H       1  UNL1        0.0275
     64 H          11.2835    1.1212    0.0000 H       1  UNL1        0.0275
     65 H          11.2835    1.9940    0.0000 H       1  UNL1        0.0271
     66 H          10.8817    2.6838    0.0000 H       1  UNL1        0.0271
     67 H           3.3085   -3.1992    0.0000 H       1  UNL1        0.0236
     68 H           3.5387   -4.0452    0.0000 H       1  UNL1        0.0236
     69 H           4.3848   -3.8150    0.0000 H       1  UNL1        0.0236
     70 H           4.3109   -3.8153    0.0000 H       1  UNL1        0.0236
     71 H           5.1587   -4.0390    0.0000 H       1  UNL1        0.0236
     72 H           5.3824   -3.1912    0.0000 H       1  UNL1        0.0236
     73 H          10.6035   -0.6334    0.0000 H       1  UNL1        0.1032
     74 H          10.7593    3.2033    0.0000 H       1  UNL1        0.0235
     75 H          10.5226    4.0476    0.0000 H       1  UNL1        0.0235
     76 H           9.6783    3.8108    0.0000 H       1  UNL1        0.0235
     77 H           9.7522    3.8117    0.0000 H       1  UNL1        0.0235
     78 H           8.9027    4.0288    0.0000 H       1  UNL1        0.0235
     79 H           8.6855    3.1793    0.0000 H       1  UNL1        0.0235
     80 H           2.0000   -2.2812    0.0000 H       1  UNL1        0.2098
@<TRIPOS>BOND
     1    17     1    1
     2     1    80    1
     3     2    30    2
     4     3     4    1
     5     3     5    1
     6     3    10    1
     7     3    33    1
     8     4     6    1
     9     4    16    1
    10     4    19    1
    11     5     8    1
    12     5    11    1
    13     5    20    1
    14     6    12    1
    15     6    14    1
    16     6    34    1
    17     7     8    1
    18     7     9    1
    19     7    13    1
    20     7    24    1
    21     8    23    2
    22     9    15    1
    23     9    18    1
    24     9    35    1
    25    10    13    1
    26    10    36    1
    27    10    37    1
    28    11    14    1
    29    11    38    1
    30    11    39    1
    31    12    17    1
    32    12    28    1
    33    12    29    1
    34    13    40    1
    35    13    41    1
    36    14    42    1
    37    14    43    1
    38    15    22    1
    39    15    26    1
    40    15    30    1
    41    16    21    1
    42    16    44    1
    43    16    45    1
    44    17    21    1
    45    17    46    1
    46    18    25    1
    47    18    47    1
    48    18    48    1
    49    19    49    1
    50    19    50    1
    51    19    51    1
    52    20    52    1
    53    20    53    1
    54    20    54    1
    55    21    55    1
    56    21    56    1
    57    22    23    1
    58    22    57    1
    59    22    58    1
    60    23    59    1
    61    24    60    1
    62    24    61    1
    63    24    62    1
    64    25    27    1
    65    25    31    1
    66    25    32    1
    67    26    27    1
    68    26    63    1
    69    26    64    1
    70    27    65    1
    71    27    66    1
    72    28    67    1
    73    28    68    1
    74    28    69    1
    75    29    70    1
    76    29    71    1
    77    29    72    1
    78    30    73    1
    79    31    74    1
    80    31    75    1
    81    31    76    1
    82    32    77    1
    83    32    78    1
    84    32    79    1
