@<TRIPOS>MOLECULE
IMPHY012501
 25 26 0 0 0
SMALL
GASTEIGER

@<TRIPOS>ATOM
      1 O           3.5888    0.8892    0.0000 O.3     1  UNL1       -0.3873
      2 O           2.3100   -0.8709    0.0000 O.3     1  UNL1       -0.3879
      3 O           7.0842    1.0906    0.0000 O.3     1  UNL1       -0.3907
      4 N           4.8488   -1.3709    0.0000 N.3     1  UNL1       -0.2870
      5 C           4.8488   -0.3709    0.0000 C.3     1  UNL1        0.0626
      6 C           3.8978   -0.0619    0.0000 C.3     1  UNL1        0.1015
      7 C           3.3100   -0.8709    0.0000 C.3     1  UNL1        0.0955
      8 C           3.8978   -1.6799    0.0000 C.3     1  UNL1        0.0284
      9 C           5.7951   -0.0662    0.0000 C.2     1  UNL1       -0.0276
     10 C           5.7951   -1.6756    0.0000 C.3     1  UNL1        0.0182
     11 C           6.3787   -0.8709    0.0000 C.2     1  UNL1       -0.0671
     12 C           6.1057    0.8844    0.0000 C.3     1  UNL1        0.0669
     13 H           4.8500    0.4791    0.0000 H       1  UNL1        0.0536
     14 H           3.2854    0.0351    0.0000 H       1  UNL1        0.0638
     15 H           3.0285   -0.3185    0.0000 H       1  UNL1        0.0632
     16 H           3.3608   -1.9899    0.0000 H       1  UNL1        0.0453
     17 H           4.1500   -2.2463    0.0000 H       1  UNL1        0.0453
     18 H           5.5440   -2.2425    0.0000 H       1  UNL1        0.0470
     19 H           6.3324   -1.9848    0.0000 H       1  UNL1        0.0470
     20 H           6.9987   -0.8709    0.0000 H       1  UNL1        0.0586
     21 H           6.0852    1.5040    0.0000 H       1  UNL1        0.0604
     22 H           5.4919    0.9717    0.0000 H       1  UNL1        0.0604
     23 H           2.9823    1.0181    0.0000 H       1  UNL1        0.2100
     24 H           2.0000   -1.4078    0.0000 H       1  UNL1        0.2099
     25 H           7.2768    1.6799    0.0000 H       1  UNL1        0.2098
@<TRIPOS>BOND
     1     6     1    1
     2     1    23    1
     3     7     2    1
     4     2    24    1
     5     3    12    1
     6     3    25    1
     7     4     5    1
     8     4     8    1
     9     4    10    1
    10     5     6    1
    11     5     9    1
    12     5    13    1
    13     6     7    1
    14     6    14    1
    15     7     8    1
    16     7    15    1
    17     8    16    1
    18     8    17    1
    19     9    11    2
    20     9    12    1
    21    10    11    1
    22    10    18    1
    23    10    19    1
    24    11    20    1
    25    12    21    1
    26    12    22    1
