@<TRIPOS>MOLECULE
IMPHY005697
 75 78 0 0 0
SMALL
GASTEIGER

@<TRIPOS>ATOM
      1 O           2.5357   -3.1598    0.0000 O.3     1  UNL1       -0.3915
      2 C           7.9288   -0.1074    0.0000 C.3     1  UNL1       -0.0222
      3 C           7.9288   -1.1074    0.0000 C.3     1  UNL1       -0.0140
      4 C           8.8750    0.1973    0.0000 C.3     1  UNL1       -0.0325
      5 C           5.2868   -1.6143    0.0000 C.3     1  UNL1       -0.0076
      6 C           7.0628   -1.6074    0.0000 C.2     1  UNL1       -0.0661
      7 C           6.1968   -1.1074    0.0000 C.2     1  UNL1       -0.0638
      8 C           5.2787   -2.6559    0.0000 C.3     1  UNL1       -0.0267
      9 C           7.0628    0.3926    0.0000 C.3     1  UNL1       -0.0431
     10 C           8.8750   -1.4122    0.0000 C.3     1  UNL1       -0.0457
     11 C           9.4586   -0.6074    0.0000 C.3     1  UNL1       -0.0489
     12 C           6.1968   -0.1074    0.0000 C.3     1  UNL1       -0.0304
     13 C           7.0789   -2.6489    0.0000 C.3     1  UNL1       -0.0309
     14 C           6.1808   -3.1767    0.0000 C.3     1  UNL1       -0.0454
     15 C           4.3433   -3.2056    0.0000 C.3     1  UNL1       -0.0142
     16 C           4.3599   -1.0502    0.0000 C.3     1  UNL1       -0.0413
     17 C           9.1857    1.1478    0.0000 C.3     1  UNL1       -0.0403
     18 C           7.9288    0.8926    0.0000 C.3     1  UNL1       -0.0587
     19 C           3.4037   -2.6631    0.0000 C.3     1  UNL1        0.0581
     20 C           3.4120   -1.5782    0.0000 C.3     1  UNL1       -0.0258
     21 C           5.2945   -0.6143    0.0000 C.3     1  UNL1       -0.0556
     22 C          10.1642    1.3540    0.0000 C.3     1  UNL1       -0.0467
     23 C           4.3472   -4.2056    0.0000 C.3     1  UNL1       -0.0598
     24 C           8.5179    1.8921    0.0000 C.3     1  UNL1       -0.0621
     25 C          10.4749    2.3046    0.0000 C.3     1  UNL1       -0.0343
     26 C          11.4534    2.5108    0.0000 C.2     1  UNL1       -0.0853
     27 C          11.7640    3.4613    0.0000 C.2     1  UNL1       -0.0796
     28 C          12.7425    3.6675    0.0000 C.3     1  UNL1       -0.0440
     29 C          11.0962    4.2056    0.0000 C.3     1  UNL1       -0.0440
     30 H           8.0188   -1.9527    0.0000 H       1  UNL1        0.0351
     31 H           9.7148    0.3292    0.0000 H       1  UNL1        0.0309
     32 H           5.2820   -3.5059    0.0000 H       1  UNL1        0.0313
     33 H           7.4613    0.8675    0.0000 H       1  UNL1        0.0274
     34 H           6.6643    0.8675    0.0000 H       1  UNL1        0.0274
     35 H           8.6240   -1.9791    0.0000 H       1  UNL1        0.0271
     36 H           9.4124   -1.7214    0.0000 H       1  UNL1        0.0271
     37 H           9.9195   -1.0222    0.0000 H       1  UNL1        0.0268
     38 H           9.9195   -0.1927    0.0000 H       1  UNL1        0.0268
     39 H           5.9847    0.4752    0.0000 H       1  UNL1        0.0310
     40 H           5.5862   -0.2151    0.0000 H       1  UNL1        0.0310
     41 H           7.2969   -3.2293    0.0000 H       1  UNL1        0.0310
     42 H           7.6880   -2.5334    0.0000 H       1  UNL1        0.0310
     43 H           5.7835   -3.6527    0.0000 H       1  UNL1        0.0271
     44 H           6.5818   -3.6496    0.0000 H       1  UNL1        0.0271
     45 H           3.8070   -3.5166    0.0000 H       1  UNL1        0.0326
     46 H           4.7681   -0.5835    0.0000 H       1  UNL1        0.0274
     47 H           3.9700   -0.5682    0.0000 H       1  UNL1        0.0274
     48 H           9.3783    1.7371    0.0000 H       1  UNL1        0.0301
     49 H           8.5488    0.8926    0.0000 H       1  UNL1        0.0235
     50 H           7.9288    1.5126    0.0000 H       1  UNL1        0.0235
     51 H           7.3088    0.8926    0.0000 H       1  UNL1        0.0235
     52 H           3.4025   -3.2831    0.0000 H       1  UNL1        0.0596
     53 H           3.2075   -0.9929    0.0000 H       1  UNL1        0.0290
     54 H           2.8004   -1.6795    0.0000 H       1  UNL1        0.0290
     55 H           5.9145   -0.6191    0.0000 H       1  UNL1        0.0238
     56 H           5.2993    0.0057    0.0000 H       1  UNL1        0.0238
     57 H           4.6745   -0.6095    0.0000 H       1  UNL1        0.0238
     58 H          10.1848    0.7344    0.0000 H       1  UNL1        0.0271
     59 H          10.7780    1.2667    0.0000 H       1  UNL1        0.0271
     60 H           3.7272   -4.2080    0.0000 H       1  UNL1        0.0233
     61 H           4.3496   -4.8256    0.0000 H       1  UNL1        0.0233
     62 H           4.9672   -4.2032    0.0000 H       1  UNL1        0.0233
     63 H           8.9793    2.3062    0.0000 H       1  UNL1        0.0233
     64 H           8.1038    2.3536    0.0000 H       1  UNL1        0.0233
     65 H           8.0564    1.4781    0.0000 H       1  UNL1        0.0233
     66 H          10.4543    2.9242    0.0000 H       1  UNL1        0.0307
     67 H           9.8611    2.3919    0.0000 H       1  UNL1        0.0307
     68 H           2.0000   -2.8477    0.0000 H       1  UNL1        0.2098
     69 H          11.8674    2.0493    0.0000 H       1  UNL1        0.0571
     70 H          12.8704    3.0608    0.0000 H       1  UNL1        0.0274
     71 H          13.3492    3.7954    0.0000 H       1  UNL1        0.0274
     72 H          12.6147    4.2742    0.0000 H       1  UNL1        0.0274
     73 H          11.5577    4.6197    0.0000 H       1  UNL1        0.0274
     74 H          10.6821    4.6671    0.0000 H       1  UNL1        0.0274
     75 H          10.6347    3.7915    0.0000 H       1  UNL1        0.0274
@<TRIPOS>BOND
     1    19     1    1
     2     1    68    1
     3     2     3    1
     4     2     4    1
     5     2     9    1
     6     2    18    1
     7     3     6    1
     8     3    10    1
     9     3    30    1
    10     4    11    1
    11     4    17    1
    12     4    31    1
    13     5     7    1
    14     5     8    1
    15     5    16    1
    16     5    21    1
    17     6     7    2
    18     6    13    1
    19     7    12    1
    20     8    14    1
    21     8    15    1
    22     8    32    1
    23     9    12    1
    24     9    33    1
    25     9    34    1
    26    10    11    1
    27    10    35    1
    28    10    36    1
    29    11    37    1
    30    11    38    1
    31    12    39    1
    32    12    40    1
    33    13    14    1
    34    13    41    1
    35    13    42    1
    36    14    43    1
    37    14    44    1
    38    15    19    1
    39    15    23    1
    40    15    45    1
    41    16    20    1
    42    16    46    1
    43    16    47    1
    44    17    22    1
    45    17    24    1
    46    17    48    1
    47    18    49    1
    48    18    50    1
    49    18    51    1
    50    19    20    1
    51    19    52    1
    52    20    53    1
    53    20    54    1
    54    21    55    1
    55    21    56    1
    56    21    57    1
    57    22    25    1
    58    22    58    1
    59    22    59    1
    60    23    60    1
    61    23    61    1
    62    23    62    1
    63    24    63    1
    64    24    64    1
    65    24    65    1
    66    25    26    1
    67    25    66    1
    68    25    67    1
    69    26    27    2
    70    26    69    1
    71    27    28    1
    72    27    29    1
    73    28    70    1
    74    28    71    1
    75    28    72    1
    76    29    73    1
    77    29    74    1
    78    29    75    1
