@<TRIPOS>MOLECULE
IMPHY000936
 45 47 0 0 0
SMALL
GASTEIGER

@<TRIPOS>ATOM
      1 O          10.5989    0.4678    0.0000 O.2     1  UNL1       -0.2526
      2 O           4.3213    0.0938    0.0000 O.3     1  UNL1       -0.4115
      3 O           3.9547    1.7866    0.0000 O.2     1  UNL1       -0.2260
      4 N           9.4377   -0.8173    0.0000 N.am    1  UNL1       -0.2662
      5 N           8.3260    0.7201    0.0000 N.pl3   1  UNL1       -0.3133
      6 N          11.1313   -1.1804    0.0000 N.am    1  UNL1       -0.3023
      7 N           2.6720    0.6227    0.0000 N.am    1  UNL1       -0.2839
      8 C           7.8260   -0.8187    0.0000 C.3     1  UNL1        0.0314
      9 C           8.6350   -0.2309    0.0000 C.3     1  UNL1        0.1031
     10 C           8.1357   -1.7634    0.0000 C.3     1  UNL1       -0.0243
     11 C           7.0170   -0.2309    0.0000 C.ar    1  UNL1       -0.0136
     12 C           9.1297   -1.7625    0.0000 C.3     1  UNL1        0.0188
     13 C           7.3260    0.7201    0.0000 C.ar    1  UNL1        0.0349
     14 C           7.0170   -1.4065    0.0000 C.3     1  UNL1       -0.0522
     15 C           6.0016   -0.4632    0.0000 C.ar    1  UNL1       -0.0136
     16 C           8.9138    1.5291    0.0000 C.3     1  UNL1        0.0024
     17 C          10.3893   -0.5100    0.0000 C.2     1  UNL1        0.3034
     18 C           6.6410    1.5048    0.0000 C.ar    1  UNL1       -0.0369
     19 C           5.2987    0.3055    0.0000 C.ar    1  UNL1        0.1336
     20 C           5.6205    1.2961    0.0000 C.ar    1  UNL1       -0.0174
     21 C          12.0829   -0.8730    0.0000 C.3     1  UNL1        0.0015
     22 C           3.6493    0.8344    0.0000 C.2     1  UNL1        0.4053
     23 C           2.0000    1.3632    0.0000 C.3     1  UNL1        0.0032
     24 H           9.3234    0.2678    0.0000 H       1  UNL1        0.0720
     25 H           7.5295   -1.8935    0.0000 H       1  UNL1        0.0290
     26 H           8.2014   -2.3799    0.0000 H       1  UNL1        0.0290
     27 H           9.0651   -2.3791    0.0000 H       1  UNL1        0.0466
     28 H           9.7362   -1.8916    0.0000 H       1  UNL1        0.0466
     29 H           6.6526   -0.9049    0.0000 H       1  UNL1        0.0239
     30 H           6.5154   -1.7709    0.0000 H       1  UNL1        0.0239
     31 H           7.3814   -1.9081    0.0000 H       1  UNL1        0.0239
     32 H           5.8168   -1.0550    0.0000 H       1  UNL1        0.0658
     33 H           9.4154    1.1647    0.0000 H       1  UNL1        0.0428
     34 H           9.2782    2.0307    0.0000 H       1  UNL1        0.0428
     35 H           8.4122    1.8936    0.0000 H       1  UNL1        0.0428
     36 H           6.8394    2.0922    0.0000 H       1  UNL1        0.0637
     37 H           5.2075    1.7585    0.0000 H       1  UNL1        0.0655
     38 H          11.0014   -1.7866    0.0000 H       1  UNL1        0.1499
     39 H          12.2735   -1.4630    0.0000 H       1  UNL1        0.0426
     40 H          12.6729   -0.6824    0.0000 H       1  UNL1        0.0426
     41 H          11.8923   -0.2830    0.0000 H       1  UNL1        0.0426
     42 H           2.4827    0.0323    0.0000 H       1  UNL1        0.1517
     43 H           2.4592    1.7799    0.0000 H       1  UNL1        0.0427
     44 H           1.5834    1.8224    0.0000 H       1  UNL1        0.0427
     45 H           1.5408    0.9466    0.0000 H       1  UNL1        0.0427
@<TRIPOS>BOND
     1     1    17    2
     2     2    19    1
     3     2    22    1
     4     3    22    2
     5     4     9    1
     6     4    12    1
     7     4    17   am
     8     5     9    1
     9     5    13    1
    10     5    16    1
    11     6    17   am
    12     6    21    1
    13     6    38    1
    14     7    22   am
    15     7    23    1
    16     7    42    1
    17     8     9    1
    18     8    10    1
    19     8    11    1
    20     8    14    1
    21     9    24    1
    22    10    12    1
    23    10    25    1
    24    10    26    1
    25    11    13   ar
    26    11    15   ar
    27    12    27    1
    28    12    28    1
    29    13    18   ar
    30    14    29    1
    31    14    30    1
    32    14    31    1
    33    15    19   ar
    34    15    32    1
    35    16    33    1
    36    16    34    1
    37    16    35    1
    38    18    20   ar
    39    18    36    1
    40    19    20   ar
    41    20    37    1
    42    21    39    1
    43    21    40    1
    44    21    41    1
    45    23    43    1
    46    23    44    1
    47    23    45    1
