@<TRIPOS>MOLECULE
IMPHY003011
 57 60 0 0 0
SMALL
GASTEIGER

@<TRIPOS>ATOM
      1 O           4.6701    1.3513    0.0000 O.3     1  UNL1       -0.3412
      2 O           3.5823   -0.9965    0.0000 O.3     1  UNL1       -0.4578
      3 O           6.4302    1.0725    0.0000 O.3     1  UNL1       -0.3663
      4 O           7.1614    0.0660    0.0000 O.3     1  UNL1       -0.4827
      5 O           4.3566   -2.0146    0.0000 O.3     1  UNL1       -0.4947
      6 O           8.9561   -2.4239    0.0000 O.2     1  UNL1       -0.2918
      7 O           2.1810    0.0215    0.0000 O.2     1  UNL1       -0.2512
      8 C           5.1701   -0.1875    0.0000 C.3     1  UNL1        0.0816
      9 C           4.1701   -0.1875    0.0000 C.3     1  UNL1        0.1430
     10 C           3.8611    0.7635    0.0000 C.3     1  UNL1        0.1044
     11 C           5.4791    0.7635    0.0000 C.3     1  UNL1        0.1675
     12 C           5.7579   -0.9965    0.0000 C.ar    1  UNL1        0.0480
     13 C           3.6532    1.7417    0.0000 C.3     1  UNL1       -0.0325
     14 C           3.1179    0.0944    0.0000 C.3     1  UNL1       -0.0325
     15 C           6.7524   -0.8920    0.0000 C.ar    1  UNL1        0.1390
     16 C           5.3511   -1.9101    0.0000 C.ar    1  UNL1        0.1273
     17 C           7.3402   -1.7010    0.0000 C.ar    1  UNL1        0.0597
     18 C           8.1964    0.1828    0.0000 C.3     1  UNL1        0.1322
     19 C           5.9389   -2.7191    0.0000 C.ar    1  UNL1       -0.0188
     20 C           8.8087   -0.6599    0.0000 C.3     1  UNL1        0.0519
     21 C           6.9334   -2.6146    0.0000 C.ar    1  UNL1       -0.0443
     22 C           8.3777   -1.6081    0.0000 C.2     1  UNL1        0.1705
     23 C           2.5878   -0.8920    0.0000 C.2     1  UNL1        0.3043
     24 C           8.5996    1.0980    0.0000 C.ar    1  UNL1       -0.0069
     25 C           2.0000   -1.7010    0.0000 C.3     1  UNL1        0.0332
     26 C           3.9499   -2.9282    0.0000 C.3     1  UNL1        0.0788
     27 C           9.5937    1.2063    0.0000 C.ar    1  UNL1       -0.0551
     28 C           8.0087    1.9047    0.0000 C.ar    1  UNL1       -0.0551
     29 C           9.9969    2.1214    0.0000 C.ar    1  UNL1       -0.0614
     30 C           8.4119    2.8198    0.0000 C.ar    1  UNL1       -0.0614
     31 C           9.4060    2.9282    0.0000 C.ar    1  UNL1       -0.0617
     32 H           5.7825   -0.0905    0.0000 H       1  UNL1        0.0438
     33 H           4.4516   -0.7400    0.0000 H       1  UNL1        0.0771
     34 H           5.5761    1.3759    0.0000 H       1  UNL1        0.0915
     35 H           4.2596    1.8706    0.0000 H       1  UNL1        0.0258
     36 H           3.5243    2.3481    0.0000 H       1  UNL1        0.0258
     37 H           3.0467    1.6128    0.0000 H       1  UNL1        0.0258
     38 H           2.7031    0.5551    0.0000 H       1  UNL1        0.0258
     39 H           2.6572   -0.3205    0.0000 H       1  UNL1        0.0258
     40 H           3.5328   -0.3664    0.0000 H       1  UNL1        0.0258
     41 H           6.5591    1.6790    0.0000 H       1  UNL1        0.2125
     42 H           7.8291    0.6823    0.0000 H       1  UNL1        0.0789
     43 H           5.6868   -3.2855    0.0000 H       1  UNL1        0.0654
     44 H           9.3209   -1.0092    0.0000 H       1  UNL1        0.0385
     45 H           9.2405   -0.2150    0.0000 H       1  UNL1        0.0385
     46 H           7.2979   -3.1162    0.0000 H       1  UNL1        0.0627
     47 H           1.4984   -1.3366    0.0000 H       1  UNL1        0.0342
     48 H           1.6356   -2.2026    0.0000 H       1  UNL1        0.0342
     49 H           2.5016   -2.0655    0.0000 H       1  UNL1        0.0342
     50 H           3.3835   -2.6760    0.0000 H       1  UNL1        0.0660
     51 H           3.6977   -3.4946    0.0000 H       1  UNL1        0.0660
     52 H           4.5163   -3.1803    0.0000 H       1  UNL1        0.0660
     53 H           9.9601    0.7061    0.0000 H       1  UNL1        0.0621
     54 H           7.3924    1.8375    0.0000 H       1  UNL1        0.0621
     55 H          10.6133    2.1886    0.0000 H       1  UNL1        0.0618
     56 H           8.0456    3.3200    0.0000 H       1  UNL1        0.0618
     57 H           9.6560    3.4955    0.0000 H       1  UNL1        0.0618
@<TRIPOS>BOND
     1     1    10    1
     2     1    11    1
     3     9     2    1
     4     2    23    1
     5    11     3    1
     6     3    41    1
     7     4    15    1
     8     4    18    1
     9     5    16    1
    10     5    26    1
    11     6    22    2
    12     7    23    2
    13     8     9    1
    14     8    11    1
    15     8    12    1
    16     8    32    1
    17     9    10    1
    18     9    33    1
    19    10    13    1
    20    10    14    1
    21    11    34    1
    22    12    15   ar
    23    12    16   ar
    24    13    35    1
    25    13    36    1
    26    13    37    1
    27    14    38    1
    28    14    39    1
    29    14    40    1
    30    15    17   ar
    31    16    19   ar
    32    17    21   ar
    33    17    22    1
    34    18    20    1
    35    18    24    1
    36    18    42    1
    37    19    21   ar
    38    19    43    1
    39    20    22    1
    40    20    44    1
    41    20    45    1
    42    21    46    1
    43    23    25    1
    44    24    27   ar
    45    24    28   ar
    46    25    47    1
    47    25    48    1
    48    25    49    1
    49    26    50    1
    50    26    51    1
    51    26    52    1
    52    27    29   ar
    53    27    53    1
    54    28    30   ar
    55    28    54    1
    56    29    31   ar
    57    29    55    1
    58    30    31   ar
    59    30    56    1
    60    31    57    1
