@<TRIPOS>MOLECULE
IMPHY016114
 75 74 0 0 0
SMALL
GASTEIGER

@<TRIPOS>ATOM
      1 C           8.9282   -2.4400    0.0000 C.3     1  UNL1       -0.0531
      2 C           8.0622   -2.9400    0.0000 C.3     1  UNL1       -0.0531
      3 C           9.7942   -2.9400    0.0000 C.3     1  UNL1       -0.0531
      4 C           7.1962   -2.4400    0.0000 C.3     1  UNL1       -0.0531
      5 C          10.6603   -2.4400    0.0000 C.3     1  UNL1       -0.0531
      6 C           6.3301   -2.9400    0.0000 C.3     1  UNL1       -0.0531
      7 C          11.5263   -2.9400    0.0000 C.3     1  UNL1       -0.0530
      8 C           5.4641   -2.4400    0.0000 C.3     1  UNL1       -0.0531
      9 C          12.3923   -2.4400    0.0000 C.3     1  UNL1       -0.0528
     10 C           4.5981   -2.9400    0.0000 C.3     1  UNL1       -0.0531
     11 C          13.2583   -2.9400    0.0000 C.3     1  UNL1       -0.0496
     12 C           3.7320   -2.4400    0.0000 C.3     1  UNL1       -0.0533
     13 C          14.1244   -2.4400    0.0000 C.3     1  UNL1       -0.0348
     14 C          16.7224    0.0600    0.0000 C.3     1  UNL1       -0.0528
     15 C          17.5885    0.5600    0.0000 C.3     1  UNL1       -0.0530
     16 C          16.7224   -0.9400    0.0000 C.3     1  UNL1       -0.0496
     17 C          17.5885    1.5600    0.0000 C.3     1  UNL1       -0.0531
     18 C           2.8660   -2.9400    0.0000 C.3     1  UNL1       -0.0559
     19 C          15.8564   -1.4400    0.0000 C.3     1  UNL1       -0.0348
     20 C          18.4545    2.0600    0.0000 C.3     1  UNL1       -0.0533
     21 C          14.9904   -2.9400    0.0000 C.2     1  UNL1       -0.0879
     22 C          15.8564   -2.4400    0.0000 C.2     1  UNL1       -0.0879
     23 C          18.4545    3.0600    0.0000 C.3     1  UNL1       -0.0559
     24 C           2.0000   -2.4400    0.0000 C.3     1  UNL1       -0.0653
     25 C          19.3205    3.5600    0.0000 C.3     1  UNL1       -0.0653
     26 H           9.3267   -1.9650    0.0000 H       1  UNL1        0.0265
     27 H           8.5297   -1.9650    0.0000 H       1  UNL1        0.0265
     28 H           7.6636   -3.4150    0.0000 H       1  UNL1        0.0265
     29 H           8.4607   -3.4150    0.0000 H       1  UNL1        0.0265
     30 H           9.3957   -3.4150    0.0000 H       1  UNL1        0.0265
     31 H          10.1928   -3.4150    0.0000 H       1  UNL1        0.0265
     32 H           7.5947   -1.9650    0.0000 H       1  UNL1        0.0265
     33 H           6.7976   -1.9650    0.0000 H       1  UNL1        0.0265
     34 H          11.0588   -1.9650    0.0000 H       1  UNL1        0.0265
     35 H          10.2617   -1.9650    0.0000 H       1  UNL1        0.0265
     36 H           5.9316   -3.4150    0.0000 H       1  UNL1        0.0265
     37 H           6.7287   -3.4150    0.0000 H       1  UNL1        0.0265
     38 H          11.1278   -3.4150    0.0000 H       1  UNL1        0.0265
     39 H          11.9248   -3.4150    0.0000 H       1  UNL1        0.0265
     40 H           5.8626   -1.9650    0.0000 H       1  UNL1        0.0265
     41 H           5.0656   -1.9650    0.0000 H       1  UNL1        0.0265
     42 H          12.7908   -1.9650    0.0000 H       1  UNL1        0.0265
     43 H          11.9938   -1.9650    0.0000 H       1  UNL1        0.0265
     44 H           4.1996   -3.4150    0.0000 H       1  UNL1        0.0265
     45 H           4.9966   -3.4150    0.0000 H       1  UNL1        0.0265
     46 H          12.8598   -3.4150    0.0000 H       1  UNL1        0.0268
     47 H          13.6569   -3.4150    0.0000 H       1  UNL1        0.0268
     48 H           4.1306   -1.9650    0.0000 H       1  UNL1        0.0265
     49 H           3.3335   -1.9650    0.0000 H       1  UNL1        0.0265
     50 H          14.5229   -1.9650    0.0000 H       1  UNL1        0.0307
     51 H          13.7258   -1.9650    0.0000 H       1  UNL1        0.0307
     52 H          16.5104    0.6426    0.0000 H       1  UNL1        0.0265
     53 H          16.1119   -0.0477    0.0000 H       1  UNL1        0.0265
     54 H          17.8005   -0.0226    0.0000 H       1  UNL1        0.0265
     55 H          18.1990    0.6677    0.0000 H       1  UNL1        0.0265
     56 H          16.9345   -1.5226    0.0000 H       1  UNL1        0.0268
     57 H          17.3330   -0.8323    0.0000 H       1  UNL1        0.0268
     58 H          17.3764    2.1426    0.0000 H       1  UNL1        0.0265
     59 H          16.9779    1.4523    0.0000 H       1  UNL1        0.0265
     60 H           2.4675   -3.4150    0.0000 H       1  UNL1        0.0263
     61 H           3.2646   -3.4150    0.0000 H       1  UNL1        0.0263
     62 H          15.6444   -0.8574    0.0000 H       1  UNL1        0.0307
     63 H          15.2458   -1.5477    0.0000 H       1  UNL1        0.0307
     64 H          18.6665    1.4774    0.0000 H       1  UNL1        0.0265
     65 H          19.0651    2.1677    0.0000 H       1  UNL1        0.0265
     66 H          14.9904   -3.5600    0.0000 H       1  UNL1        0.0569
     67 H          16.3933   -2.7500    0.0000 H       1  UNL1        0.0569
     68 H          18.2424    3.6426    0.0000 H       1  UNL1        0.0263
     69 H          17.8439    2.9523    0.0000 H       1  UNL1        0.0263
     70 H           2.3100   -1.9031    0.0000 H       1  UNL1        0.0230
     71 H           1.4631   -2.1300    0.0000 H       1  UNL1        0.0230
     72 H           1.6900   -2.9769    0.0000 H       1  UNL1        0.0230
     73 H          19.6305    3.0231    0.0000 H       1  UNL1        0.0230
     74 H          19.8574    3.8700    0.0000 H       1  UNL1        0.0230
     75 H          19.0105    4.0969    0.0000 H       1  UNL1        0.0230
@<TRIPOS>BOND
     1     1     2    1
     2     1     3    1
     3     1    26    1
     4     1    27    1
     5     2     4    1
     6     2    28    1
     7     2    29    1
     8     3     5    1
     9     3    30    1
    10     3    31    1
    11     4     6    1
    12     4    32    1
    13     4    33    1
    14     5     7    1
    15     5    34    1
    16     5    35    1
    17     6     8    1
    18     6    36    1
    19     6    37    1
    20     7     9    1
    21     7    38    1
    22     7    39    1
    23     8    10    1
    24     8    40    1
    25     8    41    1
    26     9    11    1
    27     9    42    1
    28     9    43    1
    29    10    12    1
    30    10    44    1
    31    10    45    1
    32    11    13    1
    33    11    46    1
    34    11    47    1
    35    12    18    1
    36    12    48    1
    37    12    49    1
    38    13    21    1
    39    13    50    1
    40    13    51    1
    41    14    15    1
    42    14    16    1
    43    14    52    1
    44    14    53    1
    45    15    17    1
    46    15    54    1
    47    15    55    1
    48    16    19    1
    49    16    56    1
    50    16    57    1
    51    17    20    1
    52    17    58    1
    53    17    59    1
    54    18    24    1
    55    18    60    1
    56    18    61    1
    57    19    22    1
    58    19    62    1
    59    19    63    1
    60    20    23    1
    61    20    64    1
    62    20    65    1
    63    21    22    2
    64    21    66    1
    65    22    67    1
    66    23    25    1
    67    23    68    1
    68    23    69    1
    69    24    70    1
    70    24    71    1
    71    24    72    1
    72    25    73    1
    73    25    74    1
    74    25    75    1
