@<TRIPOS>MOLECULE
IMPHY016759
 28 29 0 0 0
SMALL
GASTEIGER

@<TRIPOS>ATOM
      1 O           7.1279   -0.3776    0.0000 O.2     1  UNL1       -0.2924
      2 C           4.5981   -0.8776    0.0000 C.3     1  UNL1       -0.0120
      3 C           3.7320   -1.3776    0.0000 C.3     1  UNL1       -0.0435
      4 C           2.8660   -0.8776    0.0000 C.3     1  UNL1       -0.0430
      5 C           4.5981    0.1224    0.0000 C.2     1  UNL1       -0.0598
      6 C           2.8660    0.1224    0.0000 C.3     1  UNL1       -0.0467
      7 C           3.7320    0.6224    0.0000 C.3     1  UNL1       -0.0306
      8 C           5.5443   -1.1824    0.0000 C.3     1  UNL1        0.0167
      9 C           5.5443    0.4271    0.0000 C.2     1  UNL1       -0.0085
     10 C           6.1279   -0.3776    0.0000 C.2     1  UNL1        0.1595
     11 C           2.0000   -1.3776    0.0000 C.3     1  UNL1       -0.0624
     12 C           5.8550    1.3776    0.0000 C.3     1  UNL1       -0.0364
     13 H           4.6637   -1.4942    0.0000 H       1  UNL1        0.0350
     14 H           3.3335   -1.8526    0.0000 H       1  UNL1        0.0274
     15 H           4.1306   -1.8526    0.0000 H       1  UNL1        0.0274
     16 H           2.8660   -1.4976    0.0000 H       1  UNL1        0.0298
     17 H           2.6540    0.7050    0.0000 H       1  UNL1        0.0271
     18 H           2.2554    0.0147    0.0000 H       1  UNL1        0.0271
     19 H           4.1306    1.0973    0.0000 H       1  UNL1        0.0310
     20 H           3.3335    1.0973    0.0000 H       1  UNL1        0.0310
     21 H           5.2933   -1.7493    0.0000 H       1  UNL1        0.0351
     22 H           6.0817   -1.4916    0.0000 H       1  UNL1        0.0351
     23 H           1.6900   -0.8407    0.0000 H       1  UNL1        0.0232
     24 H           1.4631   -1.6876    0.0000 H       1  UNL1        0.0232
     25 H           2.3100   -1.9146    0.0000 H       1  UNL1        0.0232
     26 H           6.4443    1.1850    0.0000 H       1  UNL1        0.0279
     27 H           6.0476    1.9670    0.0000 H       1  UNL1        0.0279
     28 H           5.2656    1.5702    0.0000 H       1  UNL1        0.0279
@<TRIPOS>BOND
     1     1    10    2
     2     2     3    1
     3     2     5    1
     4     2     8    1
     5     2    13    1
     6     3     4    1
     7     3    14    1
     8     3    15    1
     9     4     6    1
    10     4    11    1
    11     4    16    1
    12     5     7    1
    13     5     9    2
    14     6     7    1
    15     6    17    1
    16     6    18    1
    17     7    19    1
    18     7    20    1
    19     8    10    1
    20     8    21    1
    21     8    22    1
    22     9    10    1
    23     9    12    1
    24    11    23    1
    25    11    24    1
    26    11    25    1
    27    12    26    1
    28    12    27    1
    29    12    28    1
