@<TRIPOS>MOLECULE
IMPHY007862
 74 79 0 0 0
SMALL
GASTEIGER

@<TRIPOS>ATOM
      1 O           8.9017    1.0284    0.0000 O.3     1  UNL1       -0.4806
      2 O           4.2690   -3.9635    0.0000 O.3     1  UNL1       -0.3405
      3 O           6.0288   -0.8556    0.0000 O.3     1  UNL1       -0.4838
      4 O          10.9844    2.7604    0.0000 O.3     1  UNL1       -0.4877
      5 O           8.1540    3.4091    0.0000 O.3     1  UNL1       -0.3728
      6 O           6.0010   -3.9635    0.0000 O.3     1  UNL1       -0.3443
      7 O           4.2690   -6.9635    0.0000 O.3     1  UNL1       -0.3864
      8 O           2.5369   -5.9635    0.0000 O.3     1  UNL1       -0.3865
      9 O           6.0010   -5.9635    0.0000 O.3     1  UNL1       -0.3841
     10 O           7.4218    3.6380    0.0000 O.2     1  UNL1       -0.2883
     11 O           2.5369   -2.9635    0.0000 O.3     1  UNL1       -0.3924
     12 O           8.9039    6.4055    0.0000 O.3     1  UNL1       -0.4914
     13 O          10.9955    6.4055    0.0000 O.3     1  UNL1       -0.4913
     14 C           8.9151    2.7604    0.0000 C.3     1  UNL1        0.1968
     15 C           9.4084    1.8906    0.0000 C.3     1  UNL1        0.1739
     16 C           7.9017    1.0361    0.0000 C.ar    1  UNL1        0.1386
     17 C           7.3879    0.1301    0.0000 C.ar    1  UNL1        0.0404
     18 C           9.4289    3.6665    0.0000 C.ar    1  UNL1        0.0405
     19 C           7.9151    2.7681    0.0000 C.2     1  UNL1        0.2063
     20 C           4.2690   -5.9635    0.0000 C.3     1  UNL1        0.1141
     21 C           3.4030   -5.4635    0.0000 C.3     1  UNL1        0.1119
     22 C           7.4084    1.9060    0.0000 C.ar    1  UNL1        0.0629
     23 C           7.7053   -0.8556    0.0000 C.3     1  UNL1        0.0205
     24 C          10.4497    1.8665    0.0000 C.3     1  UNL1        0.1299
     25 C           5.1350   -5.4635    0.0000 C.3     1  UNL1        0.1341
     26 C           6.8671   -1.4635    0.0000 C.3     1  UNL1        0.1273
     27 C           3.4030   -4.4635    0.0000 C.3     1  UNL1        0.1130
     28 C           5.1350   -4.4635    0.0000 C.3     1  UNL1        0.1883
     29 C           6.3463    0.1301    0.0000 C.ar    1  UNL1        0.1282
     30 C          10.4705    3.6665    0.0000 C.ar    1  UNL1        0.1308
     31 C           6.8671   -2.4635    0.0000 C.2     1  UNL1       -0.0109
     32 C           6.3671    1.9301    0.0000 C.ar    1  UNL1       -0.0442
     33 C           5.8324    1.0361    0.0000 C.ar    1  UNL1       -0.0187
     34 C           6.0010   -2.9635    0.0000 C.3     1  UNL1        0.0750
     35 C           8.8720    4.5976    0.0000 C.ar    1  UNL1       -0.0064
     36 C           2.5369   -3.9635    0.0000 C.3     1  UNL1        0.0730
     37 C          11.0274    4.5976    0.0000 C.ar    1  UNL1        0.0258
     38 C           9.4072    5.5414    0.0000 C.ar    1  UNL1        0.1621
     39 C          10.4922    5.5414    0.0000 C.ar    1  UNL1        0.1650
     40 C           7.7331   -2.9635    0.0000 C.2     1  UNL1       -0.0938
     41 C           9.4005    7.2735    0.0000 C.3     1  UNL1        0.0790
     42 C          11.9955    6.4017    0.0000 C.3     1  UNL1        0.0790
     43 H           9.7100    1.3489    0.0000 H       1  UNL1        0.0805
     44 H           4.8059   -6.2735    0.0000 H       1  UNL1        0.0648
     45 H           3.4030   -6.0835    0.0000 H       1  UNL1        0.0647
     46 H           5.6720   -5.1535    0.0000 H       1  UNL1        0.0671
     47 H           8.0145   -1.3929    0.0000 H       1  UNL1        0.0355
     48 H           8.2722   -0.6045    0.0000 H       1  UNL1        0.0355
     49 H          10.3295    1.2582    0.0000 H       1  UNL1        0.0735
     50 H          11.0284    1.6440    0.0000 H       1  UNL1        0.0735
     51 H           6.3148   -1.7452    0.0000 H       1  UNL1        0.0785
     52 H           3.4030   -3.8435    0.0000 H       1  UNL1        0.0647
     53 H           5.1350   -3.8435    0.0000 H       1  UNL1        0.0938
     54 H           6.0675    2.4729    0.0000 H       1  UNL1        0.0627
     55 H           5.2124    1.0433    0.0000 H       1  UNL1        0.0654
     56 H           5.7890   -2.3808    0.0000 H       1  UNL1        0.0609
     57 H           5.3905   -3.0711    0.0000 H       1  UNL1        0.0609
     58 H           8.2520    4.5905    0.0000 H       1  UNL1        0.0660
     59 H           8.2663    4.0188    0.0000 H       1  UNL1        0.2114
     60 H           1.9264   -3.8558    0.0000 H       1  UNL1        0.0584
     61 H           2.3249   -4.5461    0.0000 H       1  UNL1        0.0584
     62 H          11.6474    4.5905    0.0000 H       1  UNL1        0.0692
     63 H           3.7320   -7.2735    0.0000 H       1  UNL1        0.2100
     64 H           2.0000   -5.6535    0.0000 H       1  UNL1        0.2100
     65 H           6.5380   -5.6535    0.0000 H       1  UNL1        0.2101
     66 H           7.7331   -3.5835    0.0000 H       1  UNL1        0.0536
     67 H           8.2700   -2.6535    0.0000 H       1  UNL1        0.0536
     68 H           2.0000   -2.6535    0.0000 H       1  UNL1        0.2095
     69 H           9.9387    6.9655    0.0000 H       1  UNL1        0.0660
     70 H           9.7085    7.8116    0.0000 H       1  UNL1        0.0660
     71 H           8.8624    7.5814    0.0000 H       1  UNL1        0.0660
     72 H          11.9931    5.7817    0.0000 H       1  UNL1        0.0660
     73 H          12.6155    6.3993    0.0000 H       1  UNL1        0.0660
     74 H          11.9979    7.0217    0.0000 H       1  UNL1        0.0660
@<TRIPOS>BOND
     1     1    15    1
     2     1    16    1
     3     2    27    1
     4     2    28    1
     5     3    26    1
     6     3    29    1
     7     4    24    1
     8     4    30    1
     9     5    14    1
    10     5    59    1
    11     6    28    1
    12     6    34    1
    13     7    20    1
    14     7    63    1
    15     8    21    1
    16     8    64    1
    17     9    25    1
    18     9    65    1
    19    10    19    2
    20    11    36    1
    21    11    68    1
    22    12    38    1
    23    12    41    1
    24    13    39    1
    25    13    42    1
    26    14    15    1
    27    14    18    1
    28    14    19    1
    29    15    24    1
    30    15    43    1
    31    16    17   ar
    32    16    22   ar
    33    17    23    1
    34    17    29   ar
    35    18    30   ar
    36    18    35   ar
    37    19    22    1
    38    20    21    1
    39    20    25    1
    40    20    44    1
    41    21    27    1
    42    21    45    1
    43    22    32   ar
    44    23    26    1
    45    23    47    1
    46    23    48    1
    47    24    49    1
    48    24    50    1
    49    25    28    1
    50    25    46    1
    51    26    31    1
    52    26    51    1
    53    27    36    1
    54    27    52    1
    55    28    53    1
    56    29    33   ar
    57    30    37   ar
    58    31    34    1
    59    31    40    2
    60    32    33   ar
    61    32    54    1
    62    33    55    1
    63    34    56    1
    64    34    57    1
    65    35    38   ar
    66    35    58    1
    67    36    60    1
    68    36    61    1
    69    37    39   ar
    70    37    62    1
    71    38    39   ar
    72    40    66    1
    73    40    67    1
    74    41    69    1
    75    41    70    1
    76    41    71    1
    77    42    72    1
    78    42    73    1
    79    42    74    1
