@<TRIPOS>MOLECULE
IMPHY017677
 51 54 0 0 0
SMALL
GASTEIGER

@<TRIPOS>ATOM
      1 C           4.7931    0.0491    0.0000 C.3     1  UNL1       -0.0323
      2 C           5.6591   -0.4509    0.0000 C.3     1  UNL1       -0.0344
      3 C           6.5251    0.0491    0.0000 C.3     1  UNL1       -0.0325
      4 C           3.8831   -0.4578    0.0000 C.3     1  UNL1       -0.0261
      5 C           6.5251    1.0491    0.0000 C.3     1  UNL1       -0.0290
      6 C           3.8751   -1.4994    0.0000 C.3     1  UNL1       -0.0354
      7 C           4.7931    1.0491    0.0000 C.3     1  UNL1       -0.0489
      8 C           5.6591    1.5491    0.0000 C.3     1  UNL1       -0.0471
      9 C           5.6752   -1.4924    0.0000 C.3     1  UNL1       -0.0494
     10 C           7.4714   -0.2556    0.0000 C.3     1  UNL1       -0.0494
     11 C           4.7771   -2.0202    0.0000 C.3     1  UNL1       -0.0494
     12 C           7.4714    1.3538    0.0000 C.3     1  UNL1       -0.0474
     13 C           2.9562    0.1063    0.0000 C.3     1  UNL1       -0.0471
     14 C           8.0550    0.5491    0.0000 C.3     1  UNL1       -0.0523
     15 C           2.9396   -2.0491    0.0000 C.3     1  UNL1       -0.0497
     16 C           3.8908    0.5422    0.0000 C.3     1  UNL1       -0.0590
     17 C           6.5251    2.0491    0.0000 C.3     1  UNL1       -0.0593
     18 C           2.0084   -0.4216    0.0000 C.3     1  UNL1       -0.0525
     19 C           2.0000   -1.5066    0.0000 C.3     1  UNL1       -0.0528
     20 H           5.5292    0.4741    0.0000 H       1  UNL1        0.0309
     21 H           6.3985   -0.8702    0.0000 H       1  UNL1        0.0306
     22 H           6.6151   -0.7961    0.0000 H       1  UNL1        0.0309
     23 H           3.8774   -2.1194    0.0000 H       1  UNL1        0.0306
     24 H           4.5810    1.6317    0.0000 H       1  UNL1        0.0268
     25 H           4.1825    0.9414    0.0000 H       1  UNL1        0.0268
     26 H           6.0576    2.0240    0.0000 H       1  UNL1        0.0271
     27 H           5.2606    2.0240    0.0000 H       1  UNL1        0.0271
     28 H           5.8932   -2.0728    0.0000 H       1  UNL1        0.0268
     29 H           6.2843   -1.3769    0.0000 H       1  UNL1        0.0268
     30 H           7.2203   -0.8226    0.0000 H       1  UNL1        0.0268
     31 H           8.0087   -0.5649    0.0000 H       1  UNL1        0.0268
     32 H           4.3798   -2.4962    0.0000 H       1  UNL1        0.0268
     33 H           5.1781   -2.4931    0.0000 H       1  UNL1        0.0268
     34 H           8.0087    1.6630    0.0000 H       1  UNL1        0.0271
     35 H           7.2203    1.9207    0.0000 H       1  UNL1        0.0271
     36 H           3.3645    0.5730    0.0000 H       1  UNL1        0.0271
     37 H           2.5663    0.5884    0.0000 H       1  UNL1        0.0271
     38 H           8.5158    0.1344    0.0000 H       1  UNL1        0.0266
     39 H           8.5158    0.9638    0.0000 H       1  UNL1        0.0266
     40 H           2.5423   -2.5251    0.0000 H       1  UNL1        0.0268
     41 H           3.3406   -2.5220    0.0000 H       1  UNL1        0.0268
     42 H           4.5108    0.5374    0.0000 H       1  UNL1        0.0235
     43 H           3.8956    1.1622    0.0000 H       1  UNL1        0.0235
     44 H           3.2708    0.5470    0.0000 H       1  UNL1        0.0235
     45 H           7.1451    2.0491    0.0000 H       1  UNL1        0.0235
     46 H           6.5251    2.6691    0.0000 H       1  UNL1        0.0235
     47 H           5.9051    2.0491    0.0000 H       1  UNL1        0.0235
     48 H           1.8038    0.1637    0.0000 H       1  UNL1        0.0265
     49 H           1.3967   -0.5230    0.0000 H       1  UNL1        0.0265
     50 H           1.3900   -1.3958    0.0000 H       1  UNL1        0.0265
     51 H           1.7864   -2.0886    0.0000 H       1  UNL1        0.0265
@<TRIPOS>BOND
     1     1     2    1
     2     1     4    1
     3     1     7    1
     4     1    20    1
     5     2     3    1
     6     2     9    1
     7     2    21    1
     8     3     5    1
     9     3    10    1
    10     3    22    1
    11     4     6    1
    12     4    13    1
    13     4    16    1
    14     5     8    1
    15     5    12    1
    16     5    17    1
    17     6    11    1
    18     6    15    1
    19     6    23    1
    20     7     8    1
    21     7    24    1
    22     7    25    1
    23     8    26    1
    24     8    27    1
    25     9    11    1
    26     9    28    1
    27     9    29    1
    28    10    14    1
    29    10    30    1
    30    10    31    1
    31    11    32    1
    32    11    33    1
    33    12    14    1
    34    12    34    1
    35    12    35    1
    36    13    18    1
    37    13    36    1
    38    13    37    1
    39    14    38    1
    40    14    39    1
    41    15    19    1
    42    15    40    1
    43    15    41    1
    44    16    42    1
    45    16    43    1
    46    16    44    1
    47    17    45    1
    48    17    46    1
    49    17    47    1
    50    18    19    1
    51    18    48    1
    52    18    49    1
    53    19    50    1
    54    19    51    1
