@<TRIPOS>MOLECULE
IMPHY012946
 137 141 0 0 0
SMALL
GASTEIGER

@<TRIPOS>ATOM
      1 MG          7.2720   -4.8430    0.0000 Mg      1  UNL1        0.0000
      2 O           8.1006   -4.2831    0.0000 O.co2   2  UNL2       -1.0000
      3 O          10.4256   -3.3697    0.0000 O.3     2  UNL2        0.0000
      4 O          13.1449   -0.6900    0.0000 O.3     2  UNL2        0.0000
      5 O          10.6312   -1.6499    0.0000 O.2     2  UNL2        0.0000
      6 O          12.1022   -2.0731    0.0000 O.2     2  UNL2        0.0000
      7 N           8.1923    0.1932    0.0000 N.2     2  UNL2        0.0000
      8 N           6.7126   -1.1562    0.0000 N.ar    2  UNL2       -1.0000
      9 N           6.6795    1.5427    0.0000 N.2     2  UNL2        0.0000
     10 N           5.2310    0.1932    0.0000 N.2     2  UNL2        0.0000
     11 C           9.7067   -0.2671    0.0000 C.3     2  UNL2        0.0000
     12 C           9.7067    0.7194    0.0000 C.3     2  UNL2        0.0000
     13 C           8.7846   -0.5310    0.0000 C.2     2  UNL2        0.0000
     14 C          10.5052   -0.8691    0.0000 C.3     2  UNL2        0.0000
     15 C           8.4894   -1.4847    0.0000 C.2     2  UNL2        0.0000
     16 C           8.7516    0.9834    0.0000 C.2     2  UNL2        0.0000
     17 C           9.0390   -2.3317    0.0000 C.3     2  UNL2        0.0000
     18 C           7.5028   -1.7486    0.0000 C.ar    2  UNL2        0.0000
     19 C          10.5025    1.3250    0.0000 C.3     2  UNL2        0.0000
     20 C           7.2058   -2.7022    0.0000 C.ar    2  UNL2        0.0000
     21 C          11.4258   -0.4785    0.0000 C.3     2  UNL2        0.0000
     22 C           8.0299   -3.2856    0.0000 C.2     2  UNL2        0.0000
     23 C           8.4563    1.9041    0.0000 C.2     2  UNL2        0.0000
     24 C           6.2191   -2.7022    0.0000 C.ar    2  UNL2        0.0000
     25 C          22.5389   -2.3494    0.0000 C.3     2  UNL2        0.0000
     26 C          21.7404   -1.7474    0.0000 C.3     2  UNL2        0.0000
     27 C          19.1007   -1.9265    0.0000 C.3     2  UNL2        0.0000
     28 C          20.8198   -2.1380    0.0000 C.3     2  UNL2        0.0000
     29 C          20.0213   -1.5360    0.0000 C.3     2  UNL2        0.0000
     30 C          10.0319   -2.4504    0.0000 C.2     2  UNL2        0.0000
     31 C          23.4595   -1.9589    0.0000 C.3     2  UNL2        0.0000
     32 C           5.9222   -1.7817    0.0000 C.ar    2  UNL2        0.0000
     33 C          18.3022   -1.3245    0.0000 C.3     2  UNL2        0.0000
     34 C          24.2580   -2.5609    0.0000 C.3     2  UNL2        0.0000
     35 C          12.2243   -1.0805    0.0000 C.2     2  UNL2        0.0000
     36 C           7.5028    2.2011    0.0000 C.2     2  UNL2        0.0000
     37 C          25.1786   -2.1704    0.0000 C.3     2  UNL2        0.0000
     38 C          22.4168   -3.3420    0.0000 C.3     2  UNL2        0.0000
     39 C          17.3816   -1.7150    0.0000 C.3     2  UNL2        0.0000
     40 C           5.6304   -3.5106    0.0000 C.3     2  UNL2        0.0000
     41 C          18.9786   -2.9190    0.0000 C.3     2  UNL2        0.0000
     42 C           4.9686   -1.4847    0.0000 C.2     2  UNL2        0.0000
     43 C          25.9771   -2.7724    0.0000 C.3     2  UNL2        0.0000
     44 C           7.1728    3.1216    0.0000 C.2     2  UNL2        0.0000
     45 C          16.5831   -1.1130    0.0000 C.3     2  UNL2        0.0000
     46 C           4.6717   -0.5640    0.0000 C.2     2  UNL2        0.0000
     47 C           6.1862    3.1216    0.0000 C.2     2  UNL2        0.0000
     48 C           5.8892    2.1681    0.0000 C.2     2  UNL2        0.0000
     49 C          15.6625   -1.5035    0.0000 C.2     2  UNL2        0.0000
     50 C           3.7182   -0.3000    0.0000 C.2     2  UNL2        0.0000
     51 C          26.8977   -2.3819    0.0000 C.3     2  UNL2        0.0000
     52 C          25.8550   -3.7649    0.0000 C.3     2  UNL2        0.0000
     53 C          13.9434   -1.2920    0.0000 C.3     2  UNL2        0.0000
     54 C           7.7483    3.9394    0.0000 C.3     2  UNL2        0.0000
     55 C           4.6717    0.9504    0.0000 C.2     2  UNL2        0.0000
     56 C           3.7182    0.6865    0.0000 C.2     2  UNL2        0.0000
     57 C           4.9356    1.9041    0.0000 C.2     2  UNL2        0.0000
     58 C          14.8640   -0.9015    0.0000 C.2     2  UNL2        0.0000
     59 C          11.4185   -3.4884    0.0000 C.3     2  UNL2        0.0000
     60 C           2.9223   -0.9055    0.0000 C.3     2  UNL2        0.0000
     61 C          15.5404   -2.4960    0.0000 C.3     2  UNL2        0.0000
     62 C           5.5935    3.9270    0.0000 C.2     2  UNL2        0.0000
     63 C           2.9223    1.2921    0.0000 C.3     2  UNL2        0.0000
     64 C           2.0000   -0.5190    0.0000 C.3     2  UNL2        0.0000
     65 C           5.9946    4.8430    0.0000 C.2     2  UNL2        0.0000
     66 H          10.2616    0.0095    0.0000 H       2  UNL2        0.0000
     67 H           9.5894    1.3282    0.0000 H       2  UNL2        0.0000
     68 H          10.0517   -1.2918    0.0000 H       2  UNL2        0.0000
     69 H          10.8428   -1.3891    0.0000 H       2  UNL2        0.0000
     70 H           9.3668   -1.8054    0.0000 H       2  UNL2        0.0000
     71 H          10.8780    0.8317    0.0000 H       2  UNL2        0.0000
     72 H          10.9959    1.7005    0.0000 H       2  UNL2        0.0000
     73 H          10.1270    1.8184    0.0000 H       2  UNL2        0.0000
     74 H          11.8794   -0.0558    0.0000 H       2  UNL2        0.0000
     75 H          11.0883    0.0415    0.0000 H       2  UNL2        0.0000
     76 H           8.8928    2.3444    0.0000 H       2  UNL2        0.0000
     77 H          23.0339   -2.7227    0.0000 H       2  UNL2        0.0000
     78 H          22.1939   -1.3247    0.0000 H       2  UNL2        0.0000
     79 H          21.4028   -1.2274    0.0000 H       2  UNL2        0.0000
     80 H          18.5299   -2.1686    0.0000 H       2  UNL2        0.0000
     81 H          20.3662   -2.5607    0.0000 H       2  UNL2        0.0000
     82 H          21.1573   -2.6580    0.0000 H       2  UNL2        0.0000
     83 H          20.4748   -1.1132    0.0000 H       2  UNL2        0.0000
     84 H          19.6837   -1.0159    0.0000 H       2  UNL2        0.0000
     85 H          23.9130   -1.5362    0.0000 H       2  UNL2        0.0000
     86 H          23.1219   -1.4389    0.0000 H       2  UNL2        0.0000
     87 H          18.7557   -0.9017    0.0000 H       2  UNL2        0.0000
     88 H          17.9646   -0.8044    0.0000 H       2  UNL2        0.0000
     89 H          23.8044   -2.9837    0.0000 H       2  UNL2        0.0000
     90 H          24.5955   -3.0810    0.0000 H       2  UNL2        0.0000
     91 H          25.6321   -1.7477    0.0000 H       2  UNL2        0.0000
     92 H          24.8410   -1.6504    0.0000 H       2  UNL2        0.0000
     93 H          21.8014   -3.2663    0.0000 H       2  UNL2        0.0000
     94 H          22.3411   -3.9573    0.0000 H       2  UNL2        0.0000
     95 H          23.0321   -3.4177    0.0000 H       2  UNL2        0.0000
     96 H          16.9281   -2.1377    0.0000 H       2  UNL2        0.0000
     97 H          17.7192   -2.2351    0.0000 H       2  UNL2        0.0000
     98 H           5.1292   -3.1456    0.0000 H       2  UNL2        0.0000
     99 H           5.2654   -4.0118    0.0000 H       2  UNL2        0.0000
    100 H           6.1316   -3.8755    0.0000 H       2  UNL2        0.0000
    101 H          18.3632   -2.8433    0.0000 H       2  UNL2        0.0000
    102 H          18.9029   -3.5344    0.0000 H       2  UNL2        0.0000
    103 H          19.5940   -2.9947    0.0000 H       2  UNL2        0.0000
    104 H          25.4063   -3.0145    0.0000 H       2  UNL2        0.0000
    105 H           4.5324   -1.9253    0.0000 H       2  UNL2        0.0000
    106 H          17.0366   -0.6903    0.0000 H       2  UNL2        0.0000
    107 H          16.2456   -0.5929    0.0000 H       2  UNL2        0.0000
    108 H          27.1398   -2.9527    0.0000 H       2  UNL2        0.0000
    109 H          27.4684   -2.1398    0.0000 H       2  UNL2        0.0000
    110 H          26.6555   -1.8111    0.0000 H       2  UNL2        0.0000
    111 H          25.2396   -3.6892    0.0000 H       2  UNL2        0.0000
    112 H          25.7793   -4.3803    0.0000 H       2  UNL2        0.0000
    113 H          26.4703   -3.8406    0.0000 H       2  UNL2        0.0000
    114 H          13.4899   -1.7148    0.0000 H       2  UNL2        0.0000
    115 H          14.2810   -1.8121    0.0000 H       2  UNL2        0.0000
    116 H           8.2553    3.5826    0.0000 H       2  UNL2        0.0000
    117 H           8.1051    4.4464    0.0000 H       2  UNL2        0.0000
    118 H           7.2412    4.2962    0.0000 H       2  UNL2        0.0000
    119 H           4.4972    2.3425    0.0000 H       2  UNL2        0.0000
    120 H          14.9397   -0.2861    0.0000 H       2  UNL2        0.0000
    121 H          11.3449   -4.1040    0.0000 H       2  UNL2        0.0000
    122 H          12.0341   -3.5620    0.0000 H       2  UNL2        0.0000
    123 H          11.4921   -2.8728    0.0000 H       2  UNL2        0.0000
    124 H           2.5870   -1.4270    0.0000 H       2  UNL2        0.0000
    125 H           3.3777   -1.3263    0.0000 H       2  UNL2        0.0000
    126 H          14.9250   -2.4203    0.0000 H       2  UNL2        0.0000
    127 H          15.4647   -3.1114    0.0000 H       2  UNL2        0.0000
    128 H          16.1558   -2.5717    0.0000 H       2  UNL2        0.0000
    129 H           4.9773    3.8584    0.0000 H       2  UNL2        0.0000
    130 H           3.2978    1.7855    0.0000 H       2  UNL2        0.0000
    131 H           2.4289    1.6675    0.0000 H       2  UNL2        0.0000
    132 H           2.5469    0.7986    0.0000 H       2  UNL2        0.0000
    133 H           2.2396    0.0528    0.0000 H       2  UNL2        0.0000
    134 H           1.4282   -0.2794    0.0000 H       2  UNL2        0.0000
    135 H           1.7604   -1.0908    0.0000 H       2  UNL2        0.0000
    136 H           6.6108    4.9116    0.0000 H       2  UNL2        0.0000
    137 H           5.6271    5.3424    0.0000 H       2  UNL2        0.0000
@<TRIPOS>UNITY_ATOM_ATTR
1 1
charge 2
2 1
charge -1
8 1
charge -1
@<TRIPOS>BOND
     1     2    22    1
     2     3    30    1
     3     3    59    1
     4     4    35    1
     5     4    53    1
     6     5    30    2
     7     6    35    2
     8     7    13    2
     9     7    16    1
    10     8    18   ar
    11     8    32   ar
    12     9    36    2
    13     9    48    1
    14    10    46    1
    15    10    55    2
    16    11    12    1
    17    11    13    1
    18    11    14    1
    19    11    66    1
    20    12    16    1
    21    12    19    1
    22    12    67    1
    23    13    15    1
    24    14    21    1
    25    14    68    1
    26    14    69    1
    27    15    17    1
    28    15    18    2
    29    16    23    2
    30    17    22    1
    31    17    30    1
    32    17    70    1
    33    18    20   ar
    34    19    71    1
    35    19    72    1
    36    19    73    1
    37    20    22    2
    38    20    24   ar
    39    21    35    1
    40    21    74    1
    41    21    75    1
    42    23    36    1
    43    23    76    1
    44    24    32   ar
    45    24    40    1
    46    25    26    1
    47    25    31    1
    48    25    38    1
    49    25    77    1
    50    26    28    1
    51    26    78    1
    52    26    79    1
    53    27    29    1
    54    27    33    1
    55    27    41    1
    56    27    80    1
    57    28    29    1
    58    28    81    1
    59    28    82    1
    60    29    83    1
    61    29    84    1
    62    31    34    1
    63    31    85    1
    64    31    86    1
    65    32    42    1
    66    33    39    1
    67    33    87    1
    68    33    88    1
    69    34    37    1
    70    34    89    1
    71    34    90    1
    72    36    44    1
    73    37    43    1
    74    37    91    1
    75    37    92    1
    76    38    93    1
    77    38    94    1
    78    38    95    1
    79    39    45    1
    80    39    96    1
    81    39    97    1
    82    40    98    1
    83    40    99    1
    84    40   100    1
    85    41   101    1
    86    41   102    1
    87    41   103    1
    88    42    46    2
    89    42   105    1
    90    43    51    1
    91    43    52    1
    92    43   104    1
    93    44    47    2
    94    44    54    1
    95    45    49    1
    96    45   106    1
    97    45   107    1
    98    46    50    1
    99    47    48    1
   100    47    62    1
   101    48    57    2
   102    49    58    2
   103    49    61    1
   104    50    56    2
   105    50    60    1
   106    51   108    1
   107    51   109    1
   108    51   110    1
   109    52   111    1
   110    52   112    1
   111    52   113    1
   112    53    58    1
   113    53   114    1
   114    53   115    1
   115    54   116    1
   116    54   117    1
   117    54   118    1
   118    55    56    1
   119    55    57    1
   120    56    63    1
   121    57   119    1
   122    58   120    1
   123    59   121    1
   124    59   122    1
   125    59   123    1
   126    60    64    1
   127    60   124    1
   128    60   125    1
   129    61   126    1
   130    61   127    1
   131    61   128    1
   132    62    65    2
   133    62   129    1
   134    63   130    1
   135    63   131    1
   136    63   132    1
   137    64   133    1
   138    64   134    1
   139    64   135    1
   140    65   136    1
   141    65   137    1
