@<TRIPOS>MOLECULE
IMPHY007483
 32 34 0 0 0
SMALL
GASTEIGER

@<TRIPOS>ATOM
      1 O           6.0290   -0.9259    0.0000 O.3     1  UNL1       -0.4828
      2 O           6.0174    2.1433    0.0000 O.2     1  UNL1       -0.2917
      3 O           4.2690    2.1087    0.0000 O.3     1  UNL1       -0.5027
      4 O           2.5369    1.1087    0.0000 O.3     1  UNL1       -0.5009
      5 O           2.5369   -0.8913    0.0000 O.3     1  UNL1       -0.5031
      6 C           6.9350   -0.4121    0.0000 C.3     1  UNL1        0.1322
      7 C           6.9350    0.6296    0.0000 C.3     1  UNL1        0.0520
      8 C           5.1350    0.6087    0.0000 C.ar    1  UNL1        0.1043
      9 C           6.0290    1.1434    0.0000 C.2     1  UNL1        0.1741
     10 C           7.7991   -0.9154    0.0000 C.ar    1  UNL1       -0.0069
     11 C           5.1350   -0.3913    0.0000 C.ar    1  UNL1        0.1391
     12 C           4.2690    1.1087    0.0000 C.ar    1  UNL1        0.1762
     13 C           4.2690   -0.8913    0.0000 C.ar    1  UNL1        0.0262
     14 C           7.7953   -1.9154    0.0000 C.ar    1  UNL1       -0.0551
     15 C           8.6671   -0.4188    0.0000 C.ar    1  UNL1       -0.0551
     16 C           3.4030    0.6087    0.0000 C.ar    1  UNL1        0.2015
     17 C           3.4030   -0.3913    0.0000 C.ar    1  UNL1        0.1655
     18 C           8.6594   -2.4187    0.0000 C.ar    1  UNL1       -0.0614
     19 C           9.5312   -0.9221    0.0000 C.ar    1  UNL1       -0.0614
     20 C           9.5273   -1.9221    0.0000 C.ar    1  UNL1       -0.0617
     21 H           7.6720    0.0115    0.0000 H       1  UNL1        0.0789
     22 H           7.5459    0.5235    0.0000 H       1  UNL1        0.0385
     23 H           7.1441    1.2132    0.0000 H       1  UNL1        0.0385
     24 H           4.2690   -1.5113    0.0000 H       1  UNL1        0.0692
     25 H           7.2571   -2.2233    0.0000 H       1  UNL1        0.0621
     26 H           8.6694    0.2012    0.0000 H       1  UNL1        0.0621
     27 H           8.6570   -3.0387    0.0000 H       1  UNL1        0.0618
     28 H          10.0693   -0.6142    0.0000 H       1  UNL1        0.0618
     29 H          10.0630   -2.2342    0.0000 H       1  UNL1        0.0618
     30 H           3.7320    2.4187    0.0000 H       1  UNL1        0.2923
     31 H           2.0000    0.7987    0.0000 H       1  UNL1        0.2924
     32 H           2.5369   -1.5113    0.0000 H       1  UNL1        0.2923
@<TRIPOS>BOND
     1     1     6    1
     2     1    11    1
     3     2     9    2
     4     3    12    1
     5     3    30    1
     6     4    16    1
     7     4    31    1
     8     5    17    1
     9     5    32    1
    10     6     7    1
    11     6    10    1
    12     6    21    1
    13     7     9    1
    14     7    22    1
    15     7    23    1
    16     8     9    1
    17     8    11   ar
    18     8    12   ar
    19    10    14   ar
    20    10    15   ar
    21    11    13   ar
    22    12    16   ar
    23    13    17   ar
    24    13    24    1
    25    14    18   ar
    26    14    25    1
    27    15    19   ar
    28    15    26    1
    29    16    17   ar
    30    18    20   ar
    31    18    27    1
    32    19    20   ar
    33    19    28    1
    34    20    29    1
