@<TRIPOS>MOLECULE
IMPHY015372
 32 31 0 0 0
SMALL
GASTEIGER

@<TRIPOS>ATOM
      1 C           4.5981    0.5000    0.0000 C.3     1  UNL1       -0.0413
      2 C           5.4641    1.0000    0.0000 C.3     1  UNL1       -0.0502
      3 C           3.7320    1.0000    0.0000 C.3     1  UNL1       -0.0505
      4 C           4.5981   -0.5000    0.0000 C.3     1  UNL1       -0.0531
      5 C           6.3301    0.5000    0.0000 C.3     1  UNL1       -0.0531
      6 C           2.8660    0.5000    0.0000 C.3     1  UNL1       -0.0557
      7 C           7.1962    1.0000    0.0000 C.3     1  UNL1       -0.0559
      8 C           3.7320   -1.0000    0.0000 C.3     1  UNL1       -0.0650
      9 C           2.0000    1.0000    0.0000 C.3     1  UNL1       -0.0653
     10 C           8.0622    0.5000    0.0000 C.3     1  UNL1       -0.0653
     11 H           4.5981    1.1200    0.0000 H       1  UNL1        0.0301
     12 H           5.8626    1.4750    0.0000 H       1  UNL1        0.0268
     13 H           5.0656    1.4750    0.0000 H       1  UNL1        0.0268
     14 H           4.1306    1.4750    0.0000 H       1  UNL1        0.0268
     15 H           3.3335    1.4750    0.0000 H       1  UNL1        0.0268
     16 H           4.8101   -1.0826    0.0000 H       1  UNL1        0.0265
     17 H           5.2087   -0.3923    0.0000 H       1  UNL1        0.0265
     18 H           5.9316    0.0251    0.0000 H       1  UNL1        0.0265
     19 H           6.7287    0.0251    0.0000 H       1  UNL1        0.0265
     20 H           2.4675    0.0251    0.0000 H       1  UNL1        0.0263
     21 H           3.2646    0.0251    0.0000 H       1  UNL1        0.0263
     22 H           7.5947    1.4750    0.0000 H       1  UNL1        0.0263
     23 H           6.7976    1.4750    0.0000 H       1  UNL1        0.0263
     24 H           3.4220   -0.4631    0.0000 H       1  UNL1        0.0230
     25 H           3.1951   -1.3100    0.0000 H       1  UNL1        0.0230
     26 H           4.0420   -1.5369    0.0000 H       1  UNL1        0.0230
     27 H           2.3100    1.5369    0.0000 H       1  UNL1        0.0230
     28 H           1.4631    1.3100    0.0000 H       1  UNL1        0.0230
     29 H           1.6900    0.4631    0.0000 H       1  UNL1        0.0230
     30 H           7.7522   -0.0369    0.0000 H       1  UNL1        0.0230
     31 H           8.5991    0.1900    0.0000 H       1  UNL1        0.0230
     32 H           8.3722    1.0369    0.0000 H       1  UNL1        0.0230
@<TRIPOS>BOND
     1     1     2    1
     2     1     3    1
     3     1     4    1
     4     1    11    1
     5     2     5    1
     6     2    12    1
     7     2    13    1
     8     3     6    1
     9     3    14    1
    10     3    15    1
    11     4     8    1
    12     4    16    1
    13     4    17    1
    14     5     7    1
    15     5    18    1
    16     5    19    1
    17     6     9    1
    18     6    20    1
    19     6    21    1
    20     7    10    1
    21     7    22    1
    22     7    23    1
    23     8    24    1
    24     8    25    1
    25     8    26    1
    26     9    27    1
    27     9    28    1
    28     9    29    1
    29    10    30    1
    30    10    31    1
    31    10    32    1
