@<TRIPOS>MOLECULE
IMPHY005307
 51 54 0 0 0
SMALL
GASTEIGER

@<TRIPOS>ATOM
      1 O           6.1383   -1.4163    0.0000 O.3     1  UNL1       -0.4564
      2 O           2.0024   -2.6831    0.0000 O.3     1  UNL1       -0.3917
      3 O           6.1198   -3.1739    0.0000 O.2     1  UNL1       -0.2502
      4 C           3.7884   -0.6380    0.0000 C.3     1  UNL1       -0.0157
      5 C           4.6544   -1.1380    0.0000 C.3     1  UNL1        0.0214
      6 C           4.6704   -2.1795    0.0000 C.3     1  UNL1        0.0743
      7 C           3.7884    0.3620    0.0000 C.3     1  UNL1       -0.0138
      8 C           5.5204   -0.6380    0.0000 C.3     1  UNL1        0.1258
      9 C           2.8784   -1.1448    0.0000 C.3     1  UNL1       -0.0205
     10 C           3.7724   -2.7072    0.0000 C.3     1  UNL1       -0.0109
     11 C           4.6544    0.8620    0.0000 C.2     1  UNL1       -0.0656
     12 C           2.8703   -2.1864    0.0000 C.3     1  UNL1        0.0568
     13 C           2.8784    0.8689    0.0000 C.3     1  UNL1       -0.0452
     14 C           2.9223   -0.1380    0.0000 C.3     1  UNL1       -0.0585
     15 C           5.5204    0.3620    0.0000 C.2     1  UNL1       -0.0441
     16 C           5.6585   -2.2866    0.0000 C.2     1  UNL1        0.3141
     17 C           4.6704    1.9035    0.0000 C.3     1  UNL1       -0.0225
     18 C           3.7724    2.4313    0.0000 C.3     1  UNL1       -0.0106
     19 C           2.8703    1.9105    0.0000 C.3     1  UNL1       -0.0433
     20 C           5.1804   -3.0397    0.0000 C.3     1  UNL1       -0.0489
     21 C           4.2758    3.2954    0.0000 C.3     1  UNL1       -0.0558
     22 C           3.2758    3.2992    0.0000 C.2     1  UNL1       -0.0849
     23 C           2.2758    3.3031    0.0000 C.2     1  UNL1       -0.1021
     24 H           3.9183   -1.5630    0.0000 H       1  UNL1        0.0356
     25 H           4.5245   -0.0630    0.0000 H       1  UNL1        0.0351
     26 H           6.3230   -0.3581    0.0000 H       1  UNL1        0.0782
     27 H           2.6738   -0.5595    0.0000 H       1  UNL1        0.0296
     28 H           2.2667   -1.2462    0.0000 H       1  UNL1        0.0296
     29 H           3.3751   -3.1832    0.0000 H       1  UNL1        0.0301
     30 H           4.1734   -3.1801    0.0000 H       1  UNL1        0.0301
     31 H           2.3352   -1.8733    0.0000 H       1  UNL1        0.0594
     32 H           2.2667    0.9702    0.0000 H       1  UNL1        0.0271
     33 H           2.6738    0.2836    0.0000 H       1  UNL1        0.0271
     34 H           3.2323    0.3990    0.0000 H       1  UNL1        0.0235
     35 H           2.3854    0.1720    0.0000 H       1  UNL1        0.0235
     36 H           2.6123   -0.6749    0.0000 H       1  UNL1        0.0235
     37 H           6.0573    0.6720    0.0000 H       1  UNL1        0.0608
     38 H           5.2796    1.7880    0.0000 H       1  UNL1        0.0318
     39 H           4.8885    2.4839    0.0000 H       1  UNL1        0.0318
     40 H           2.6568    2.4925    0.0000 H       1  UNL1        0.0274
     41 H           2.2603    1.7997    0.0000 H       1  UNL1        0.0274
     42 H           4.6471   -3.3559    0.0000 H       1  UNL1        0.0240
     43 H           5.4966   -3.5730    0.0000 H       1  UNL1        0.0240
     44 H           5.7138   -2.7235    0.0000 H       1  UNL1        0.0240
     45 H           4.8115    2.9833    0.0000 H       1  UNL1        0.0238
     46 H           4.5878    3.8311    0.0000 H       1  UNL1        0.0238
     47 H           3.7400    3.6074    0.0000 H       1  UNL1        0.0238
     48 H           2.0000   -3.3031    0.0000 H       1  UNL1        0.2098
     49 H           3.5878    3.8350    0.0000 H       1  UNL1        0.0572
     50 H           1.9678    3.8412    0.0000 H       1  UNL1        0.0532
     51 H           1.9637    2.7673    0.0000 H       1  UNL1        0.0532
@<TRIPOS>BOND
     1     1     8    1
     2     1    16    1
     3    12     2    1
     4     2    48    1
     5     3    16    2
     6     4     5    1
     7     4     7    1
     8     4     9    1
     9     4    14    1
    10     5     6    1
    11     5     8    1
    12     5    24    1
    13     6    10    1
    14     6    16    1
    15     6    20    1
    16     7    11    1
    17     7    13    1
    18     7    25    1
    19     8    15    1
    20     8    26    1
    21     9    12    1
    22     9    27    1
    23     9    28    1
    24    10    12    1
    25    10    29    1
    26    10    30    1
    27    11    15    2
    28    11    17    1
    29    12    31    1
    30    13    19    1
    31    13    32    1
    32    13    33    1
    33    14    34    1
    34    14    35    1
    35    14    36    1
    36    15    37    1
    37    17    18    1
    38    17    38    1
    39    17    39    1
    40    18    19    1
    41    18    21    1
    42    18    22    1
    43    19    40    1
    44    19    41    1
    45    20    42    1
    46    20    43    1
    47    20    44    1
    48    21    45    1
    49    21    46    1
    50    21    47    1
    51    22    23    2
    52    22    49    1
    53    23    50    1
    54    23    51    1
