@<TRIPOS>MOLECULE
IMPHY001278
 35 35 0 0 0
SMALL
GASTEIGER

@<TRIPOS>ATOM
      1 O           5.4641    2.2500    0.0000 O.3     1  UNL1       -0.4525
      2 O           2.8660   -1.2500    0.0000 O.3     1  UNL1       -0.4914
      3 O           4.5981   -2.2500    0.0000 O.3     1  UNL1       -0.4223
      4 O           4.5981    3.7500    0.0000 O.2     1  UNL1       -0.2511
      5 O           6.3301   -2.2500    0.0000 O.2     1  UNL1       -0.2507
      6 C           4.5981    0.7500    0.0000 C.ar    1  UNL1        0.0003
      7 C           4.5981    1.7500    0.0000 C.3     1  UNL1        0.1462
      8 C           3.7320    0.2500    0.0000 C.ar    1  UNL1       -0.0093
      9 C           5.4641    0.2500    0.0000 C.ar    1  UNL1       -0.0511
     10 C           3.7320   -0.7500    0.0000 C.ar    1  UNL1        0.1626
     11 C           4.5981   -1.2500    0.0000 C.ar    1  UNL1        0.1730
     12 C           5.4641   -0.7500    0.0000 C.ar    1  UNL1       -0.0152
     13 C           3.7320    2.2500    0.0000 C.2     1  UNL1       -0.0466
     14 C           5.4641    3.2500    0.0000 C.2     1  UNL1        0.3048
     15 C           3.7320    3.2500    0.0000 C.2     1  UNL1       -0.0989
     16 C           2.0000   -0.7500    0.0000 C.3     1  UNL1        0.0790
     17 C           5.4641   -2.7500    0.0000 C.2     1  UNL1        0.3093
     18 C           6.3301    3.7500    0.0000 C.3     1  UNL1        0.0333
     19 C           5.4641   -3.7500    0.0000 C.3     1  UNL1        0.0336
     20 H           4.5981    2.3700    0.0000 H       1  UNL1        0.0831
     21 H           3.1951    0.5600    0.0000 H       1  UNL1        0.0659
     22 H           6.0010    0.5600    0.0000 H       1  UNL1        0.0623
     23 H           6.0010   -1.0600    0.0000 H       1  UNL1        0.0656
     24 H           3.1951    1.9400    0.0000 H       1  UNL1        0.0606
     25 H           4.2690    3.5600    0.0000 H       1  UNL1        0.0533
     26 H           3.1951    3.5600    0.0000 H       1  UNL1        0.0533
     27 H           2.3100   -0.2131    0.0000 H       1  UNL1        0.0660
     28 H           1.4631   -0.4400    0.0000 H       1  UNL1        0.0660
     29 H           1.6900   -1.2869    0.0000 H       1  UNL1        0.0660
     30 H           6.6401    3.2131    0.0000 H       1  UNL1        0.0342
     31 H           6.8671    4.0600    0.0000 H       1  UNL1        0.0342
     32 H           6.0201    4.2869    0.0000 H       1  UNL1        0.0342
     33 H           4.8441   -3.7500    0.0000 H       1  UNL1        0.0342
     34 H           5.4641   -4.3700    0.0000 H       1  UNL1        0.0342
     35 H           6.0841   -3.7500    0.0000 H       1  UNL1        0.0342
@<TRIPOS>BOND
     1     1     7    1
     2     1    14    1
     3     2    10    1
     4     2    16    1
     5     3    11    1
     6     3    17    1
     7     4    14    2
     8     5    17    2
     9     6     7    1
    10     6     8   ar
    11     6     9   ar
    12     7    13    1
    13     7    20    1
    14     8    10   ar
    15     8    21    1
    16     9    12   ar
    17     9    22    1
    18    10    11   ar
    19    11    12   ar
    20    12    23    1
    21    13    15    2
    22    13    24    1
    23    14    18    1
    24    15    25    1
    25    15    26    1
    26    16    27    1
    27    16    28    1
    28    16    29    1
    29    17    19    1
    30    18    30    1
    31    18    31    1
    32    18    32    1
    33    19    33    1
    34    19    34    1
    35    19    35    1
