@<TRIPOS>MOLECULE
IMPHY009910
 40 42 0 0 0
SMALL
GASTEIGER

@<TRIPOS>ATOM
      1 O           7.2806    0.7457    0.0000 O.3     1  UNL1       -0.3871
      2 O           3.7230   -0.1959    0.0000 O.3     1  UNL1       -0.4564
      3 O           7.0268   -2.1845    0.0000 O.3     1  UNL1       -0.3842
      4 O           4.8930   -1.7992    0.0000 O.2     1  UNL1       -0.2938
      5 O           2.0000    0.2363    0.0000 O.2     1  UNL1       -0.2453
      6 C           5.4786   -0.1221    0.0000 C.3     1  UNL1        0.0950
      7 C           6.3796    0.3118    0.0000 C.3     1  UNL1        0.0869
      8 C           4.5777    0.3118    0.0000 C.3     1  UNL1        0.1251
      9 C           6.6021    1.2867    0.0000 C.3     1  UNL1       -0.0138
     10 C           7.0647   -0.4085    0.0000 C.3     1  UNL1        0.0104
     11 C           4.3551    1.2867    0.0000 C.3     1  UNL1        0.0285
     12 C           5.6146   -1.1068    0.0000 C.2     1  UNL1        0.1737
     13 C           6.5929   -1.2835    0.0000 C.3     1  UNL1        0.1164
     14 C           5.9786    2.0685    0.0000 C.3     1  UNL1       -0.0472
     15 C           4.9786    2.0685    0.0000 C.3     1  UNL1       -0.0423
     16 C           4.5777   -0.5560    0.0000 C.3     1  UNL1       -0.0466
     17 C           7.5770    1.5092    0.0000 C.3     1  UNL1       -0.0598
     18 C           3.3648    1.3732    0.0000 C.2     1  UNL1        0.0361
     19 C           2.9749    0.4588    0.0000 C.2     1  UNL1        0.3353
     20 C           2.8504    2.2308    0.0000 C.2     1  UNL1       -0.0883
     21 H           5.2422    0.8417    0.0000 H       1  UNL1        0.0751
     22 H           6.8069    1.8719    0.0000 H       1  UNL1        0.0326
     23 H           7.5765   -0.7585    0.0000 H       1  UNL1        0.0323
     24 H           7.4666    0.0636    0.0000 H       1  UNL1        0.0323
     25 H           4.0200    2.0679    0.0000 H       1  UNL1        0.0387
     26 H           7.2127   -1.2977    0.0000 H       1  UNL1        0.0674
     27 H           6.5372    2.3375    0.0000 H       1  UNL1        0.0269
     28 H           5.8407    2.6730    0.0000 H       1  UNL1        0.0269
     29 H           5.1166    2.6730    0.0000 H       1  UNL1        0.0272
     30 H           4.4200    2.3375    0.0000 H       1  UNL1        0.0272
     31 H           4.3086    0.0026    0.0000 H       1  UNL1        0.0241
     32 H           4.0191   -0.8250    0.0000 H       1  UNL1        0.0241
     33 H           4.8467   -1.1146    0.0000 H       1  UNL1        0.0241
     34 H           7.7150    0.9048    0.0000 H       1  UNL1        0.0233
     35 H           8.1815    1.6472    0.0000 H       1  UNL1        0.0233
     36 H           7.4391    2.1137    0.0000 H       1  UNL1        0.0233
     37 H           7.7928    0.3964    0.0000 H       1  UNL1        0.2102
     38 H           7.6450   -2.2308    0.0000 H       1  UNL1        0.2104
     39 H           3.1514    2.7728    0.0000 H       1  UNL1        0.0540
     40 H           2.2305    2.2204    0.0000 H       1  UNL1        0.0540
@<TRIPOS>BOND
     1     7     1    1
     2     1    37    1
     3     2     8    1
     4     2    19    1
     5    13     3    1
     6     3    38    1
     7     4    12    2
     8     5    19    2
     9     6     7    1
    10     6     8    1
    11     6    12    1
    12     6    16    1
    13     7     9    1
    14     7    10    1
    15     8    11    1
    16     8    21    1
    17     9    14    1
    18     9    17    1
    19     9    22    1
    20    10    13    1
    21    10    23    1
    22    10    24    1
    23    11    15    1
    24    11    18    1
    25    11    25    1
    26    12    13    1
    27    13    26    1
    28    14    15    1
    29    14    27    1
    30    14    28    1
    31    15    29    1
    32    15    30    1
    33    16    31    1
    34    16    32    1
    35    16    33    1
    36    17    34    1
    37    17    35    1
    38    17    36    1
    39    18    19    1
    40    18    20    2
    41    20    39    1
    42    20    40    1
