@<TRIPOS>MOLECULE
IMPHY014748
 110 112 0 0 0
SMALL
GASTEIGER

@<TRIPOS>ATOM
      1 O          17.0292   -0.0621    0.0000 O.3     1  UNL1       -0.3683
      2 O          19.0983   -0.7344    0.0000 O.3     1  UNL1       -0.3683
      3 O          15.0612   -0.7614    0.0000 O.3     1  UNL1       -0.3892
      4 O          20.2793   -2.4569    0.0000 O.3     1  UNL1       -0.3892
      5 O           6.1595    3.6809    0.0000 O.3     1  UNL1       -0.4611
      6 O           5.0380    5.0658    0.0000 O.2     1  UNL1       -0.2505
      7 O           3.4013    1.7265    0.0000 O.2     1  UNL1       -0.2977
      8 C          17.8382    0.5257    0.0000 C.3     1  UNL1        0.0853
      9 C          18.7893    0.2167    0.0000 C.3     1  UNL1        0.0853
     10 C          17.5292    1.4768    0.0000 C.3     1  UNL1       -0.0217
     11 C          19.5983    0.8045    0.0000 C.3     1  UNL1       -0.0217
     12 C          16.2202    0.5257    0.0000 C.3     1  UNL1        0.0850
     13 C          20.0983   -0.7344    0.0000 C.3     1  UNL1        0.0850
     14 C          16.5292    1.4768    0.0000 C.3     1  UNL1       -0.0217
     15 C          20.4073    0.2167    0.0000 C.3     1  UNL1       -0.0217
     16 C          15.2691    0.2167    0.0000 C.3     1  UNL1        0.0813
     17 C          20.6861   -1.5434    0.0000 C.3     1  UNL1        0.0813
     18 C          14.5260    0.8858    0.0000 C.3     1  UNL1       -0.0244
     19 C          21.6806   -1.4388    0.0000 C.3     1  UNL1       -0.0244
     20 C          13.5749    0.5768    0.0000 C.3     1  UNL1       -0.0506
     21 C          22.2684   -2.2479    0.0000 C.3     1  UNL1       -0.0506
     22 C          12.8318    1.2459    0.0000 C.3     1  UNL1       -0.0530
     23 C          23.2629   -2.1433    0.0000 C.3     1  UNL1       -0.0530
     24 C          11.8807    0.9369    0.0000 C.3     1  UNL1       -0.0531
     25 C          23.8507   -2.9523    0.0000 C.3     1  UNL1       -0.0531
     26 C          11.1376    1.6061    0.0000 C.3     1  UNL1       -0.0531
     27 C           6.0550    2.6864    0.0000 C.3     1  UNL1        0.1039
     28 C          10.1865    1.2970    0.0000 C.3     1  UNL1       -0.0531
     29 C          24.8452   -2.8478    0.0000 C.3     1  UNL1       -0.0531
     30 C           5.0768    2.4785    0.0000 C.3     1  UNL1       -0.0024
     31 C           6.7981    2.0173    0.0000 C.3     1  UNL1       -0.0156
     32 C           4.5768    3.3445    0.0000 C.3     1  UNL1        0.0664
     33 C           9.4434    1.9662    0.0000 C.3     1  UNL1       -0.0531
     34 C           7.7492    2.3263    0.0000 C.3     1  UNL1       -0.0497
     35 C           8.4923    1.6572    0.0000 C.3     1  UNL1       -0.0529
     36 C          25.4330   -3.6568    0.0000 C.3     1  UNL1       -0.0531
     37 C           5.2460    4.0877    0.0000 C.2     1  UNL1        0.3110
     38 C           3.5823    3.4490    0.0000 C.3     1  UNL1        0.0186
     39 C          26.4275   -3.5523    0.0000 C.3     1  UNL1       -0.0531
     40 C          27.0153   -4.3613    0.0000 C.3     1  UNL1       -0.0533
     41 C           2.9945    2.6400    0.0000 C.2     1  UNL1        0.1311
     42 C          28.0098   -4.2568    0.0000 C.3     1  UNL1       -0.0559
     43 C           2.0000    2.7446    0.0000 C.3     1  UNL1       -0.0060
     44 C          28.5976   -5.0658    0.0000 C.3     1  UNL1       -0.0653
     45 H          17.9712   -0.3138    0.0000 H       1  UNL1        0.0622
     46 H          18.6563    1.0562    0.0000 H       1  UNL1        0.0622
     47 H          18.1357    1.6057    0.0000 H       1  UNL1        0.0292
     48 H          17.4644    2.0934    0.0000 H       1  UNL1        0.0292
     49 H          20.0132    1.2652    0.0000 H       1  UNL1        0.0292
     50 H          19.1834    1.2652    0.0000 H       1  UNL1        0.0292
     51 H          16.0872   -0.3138    0.0000 H       1  UNL1        0.0622
     52 H          19.7124   -1.4917    0.0000 H       1  UNL1        0.0622
     53 H          16.5940    2.0934    0.0000 H       1  UNL1        0.0292
     54 H          15.9228    1.6057    0.0000 H       1  UNL1        0.0292
     55 H          20.9737   -0.0355    0.0000 H       1  UNL1        0.0292
     56 H          20.7173    0.7536    0.0000 H       1  UNL1        0.0292
     57 H          14.6795    0.0251    0.0000 H       1  UNL1        0.0619
     58 H          21.0505   -2.0450    0.0000 H       1  UNL1        0.0619
     59 H          15.0146    1.2676    0.0000 H       1  UNL1        0.0291
     60 H          14.2349    1.4333    0.0000 H       1  UNL1        0.0291
     61 H          22.2379   -1.1670    0.0000 H       1  UNL1        0.0291
     62 H          21.5097   -0.8429    0.0000 H       1  UNL1        0.0291
     63 H          13.0864    0.1951    0.0000 H       1  UNL1        0.0266
     64 H          13.8660    0.0294    0.0000 H       1  UNL1        0.0266
     65 H          21.7111   -2.5196    0.0000 H       1  UNL1        0.0266
     66 H          22.4393   -2.8438    0.0000 H       1  UNL1        0.0266
     67 H          14.4716   -0.9530    0.0000 H       1  UNL1        0.2099
     68 H          20.6438   -2.9585    0.0000 H       1  UNL1        0.2099
     69 H          13.3203    1.6277    0.0000 H       1  UNL1        0.0265
     70 H          12.5407    1.7934    0.0000 H       1  UNL1        0.0265
     71 H          23.8202   -1.8715    0.0000 H       1  UNL1        0.0265
     72 H          23.0920   -1.5474    0.0000 H       1  UNL1        0.0265
     73 H          11.3922    0.5552    0.0000 H       1  UNL1        0.0265
     74 H          12.1718    0.3895    0.0000 H       1  UNL1        0.0265
     75 H          23.2934   -3.2241    0.0000 H       1  UNL1        0.0265
     76 H          24.0216   -3.5483    0.0000 H       1  UNL1        0.0265
     77 H          11.6261    1.9878    0.0000 H       1  UNL1        0.0265
     78 H          10.8465    2.1535    0.0000 H       1  UNL1        0.0265
     79 H           6.6338    2.9086    0.0000 H       1  UNL1        0.0734
     80 H           9.6980    0.9153    0.0000 H       1  UNL1        0.0265
     81 H          10.4776    0.7496    0.0000 H       1  UNL1        0.0265
     82 H          25.4025   -2.5760    0.0000 H       1  UNL1        0.0265
     83 H          24.6743   -2.2518    0.0000 H       1  UNL1        0.0265
     84 H           4.5104    2.2263    0.0000 H       1  UNL1        0.0309
     85 H           5.2684    1.8888    0.0000 H       1  UNL1        0.0309
     86 H           6.3096    1.6356    0.0000 H       1  UNL1        0.0301
     87 H           7.0892    1.4699    0.0000 H       1  UNL1        0.0301
     88 H           4.2392    2.8245    0.0000 H       1  UNL1        0.0419
     89 H           9.9320    2.3479    0.0000 H       1  UNL1        0.0265
     90 H           9.1523    2.5136    0.0000 H       1  UNL1        0.0265
     91 H           8.2377    2.7080    0.0000 H       1  UNL1        0.0266
     92 H           7.4581    2.8737    0.0000 H       1  UNL1        0.0266
     93 H           8.0038    1.2754    0.0000 H       1  UNL1        0.0265
     94 H           8.7834    1.1097    0.0000 H       1  UNL1        0.0265
     95 H          24.8757   -3.9286    0.0000 H       1  UNL1        0.0265
     96 H          25.6039   -4.2528    0.0000 H       1  UNL1        0.0265
     97 H           3.7532    4.0450    0.0000 H       1  UNL1        0.0349
     98 H           3.0250    3.7208    0.0000 H       1  UNL1        0.0349
     99 H          26.9848   -3.2805    0.0000 H       1  UNL1        0.0265
    100 H          26.2566   -2.9563    0.0000 H       1  UNL1        0.0265
    101 H          26.4581   -4.6331    0.0000 H       1  UNL1        0.0265
    102 H          27.1862   -4.9573    0.0000 H       1  UNL1        0.0265
    103 H          28.5671   -3.9850    0.0000 H       1  UNL1        0.0263
    104 H          27.8389   -3.6608    0.0000 H       1  UNL1        0.0263
    105 H           2.0648    3.3612    0.0000 H       1  UNL1        0.0306
    106 H           1.3834    2.8094    0.0000 H       1  UNL1        0.0306
    107 H           1.9352    2.1279    0.0000 H       1  UNL1        0.0306
    108 H          28.0960   -5.4302    0.0000 H       1  UNL1        0.0230
    109 H          28.9620   -5.5674    0.0000 H       1  UNL1        0.0230
    110 H          29.0992   -4.7014    0.0000 H       1  UNL1        0.0230
@<TRIPOS>BOND
     1     1     8    1
     2     1    12    1
     3     2     9    1
     4     2    13    1
     5    16     3    1
     6     3    67    1
     7    17     4    1
     8     4    68    1
     9     5    27    1
    10     5    37    1
    11     6    37    2
    12     7    41    2
    13     8     9    1
    14     8    10    1
    15     8    45    1
    16     9    11    1
    17     9    46    1
    18    10    14    1
    19    10    47    1
    20    10    48    1
    21    11    15    1
    22    11    49    1
    23    11    50    1
    24    12    14    1
    25    12    16    1
    26    12    51    1
    27    13    15    1
    28    13    17    1
    29    13    52    1
    30    14    53    1
    31    14    54    1
    32    15    55    1
    33    15    56    1
    34    16    18    1
    35    16    57    1
    36    17    19    1
    37    17    58    1
    38    18    20    1
    39    18    59    1
    40    18    60    1
    41    19    21    1
    42    19    61    1
    43    19    62    1
    44    20    22    1
    45    20    63    1
    46    20    64    1
    47    21    23    1
    48    21    65    1
    49    21    66    1
    50    22    24    1
    51    22    69    1
    52    22    70    1
    53    23    25    1
    54    23    71    1
    55    23    72    1
    56    24    26    1
    57    24    73    1
    58    24    74    1
    59    25    29    1
    60    25    75    1
    61    25    76    1
    62    26    28    1
    63    26    77    1
    64    26    78    1
    65    27    30    1
    66    27    31    1
    67    27    79    1
    68    28    33    1
    69    28    80    1
    70    28    81    1
    71    29    36    1
    72    29    82    1
    73    29    83    1
    74    30    32    1
    75    30    84    1
    76    30    85    1
    77    31    34    1
    78    31    86    1
    79    31    87    1
    80    32    37    1
    81    32    38    1
    82    32    88    1
    83    33    35    1
    84    33    89    1
    85    33    90    1
    86    34    35    1
    87    34    91    1
    88    34    92    1
    89    35    93    1
    90    35    94    1
    91    36    39    1
    92    36    95    1
    93    36    96    1
    94    38    41    1
    95    38    97    1
    96    38    98    1
    97    39    40    1
    98    39    99    1
    99    39   100    1
   100    40    42    1
   101    40   101    1
   102    40   102    1
   103    41    43    1
   104    42    44    1
   105    42   103    1
   106    42   104    1
   107    43   105    1
   108    43   106    1
   109    43   107    1
   110    44   108    1
   111    44   109    1
   112    44   110    1
