@<TRIPOS>MOLECULE
IMPHY015094
 27 28 0 0 0
SMALL
GASTEIGER

@<TRIPOS>ATOM
      1 O           6.3306    0.2500    0.0000 O.3     1  UNL1       -0.3650
      2 C           5.4641    0.7500    0.0000 C.3     1  UNL1        0.0932
      3 C           5.4641   -0.2500    0.0000 C.3     1  UNL1        0.0887
      4 C           4.5981    1.2500    0.0000 C.3     1  UNL1       -0.0210
      5 C           4.5981   -0.7500    0.0000 C.3     1  UNL1       -0.0174
      6 C           3.7320   -0.2500    0.0000 C.3     1  UNL1       -0.0179
      7 C           3.7320    0.7500    0.0000 C.3     1  UNL1       -0.0438
      8 C           5.4641    1.7500    0.0000 C.3     1  UNL1       -0.0334
      9 C           2.8660   -0.7500    0.0000 C.2     1  UNL1       -0.0765
     10 C           2.0000   -0.2500    0.0000 C.3     1  UNL1       -0.0438
     11 C           2.8660   -1.7500    0.0000 C.2     1  UNL1       -0.0994
     12 H           5.8890   -0.9862    0.0000 H       1  UNL1        0.0625
     13 H           4.9966    1.7250    0.0000 H       1  UNL1        0.0294
     14 H           4.1996    1.7250    0.0000 H       1  UNL1        0.0294
     15 H           4.1996   -1.2250    0.0000 H       1  UNL1        0.0297
     16 H           4.9966   -1.2250    0.0000 H       1  UNL1        0.0297
     17 H           3.7320   -0.8700    0.0000 H       1  UNL1        0.0346
     18 H           3.5200    1.3326    0.0000 H       1  UNL1        0.0272
     19 H           3.1215    0.6423    0.0000 H       1  UNL1        0.0272
     20 H           6.0841    1.7500    0.0000 H       1  UNL1        0.0258
     21 H           5.4641    2.3700    0.0000 H       1  UNL1        0.0258
     22 H           4.8441    1.7500    0.0000 H       1  UNL1        0.0258
     23 H           2.3100    0.2869    0.0000 H       1  UNL1        0.0274
     24 H           1.4631    0.0600    0.0000 H       1  UNL1        0.0274
     25 H           1.6900   -0.7869    0.0000 H       1  UNL1        0.0274
     26 H           2.3291   -2.0600    0.0000 H       1  UNL1        0.0534
     27 H           3.4030   -2.0600    0.0000 H       1  UNL1        0.0534
@<TRIPOS>BOND
     1     1     2    1
     2     1     3    1
     3     2     3    1
     4     2     4    1
     5     2     8    1
     6     3     5    1
     7     3    12    1
     8     4     7    1
     9     4    13    1
    10     4    14    1
    11     5     6    1
    12     5    15    1
    13     5    16    1
    14     6     7    1
    15     6     9    1
    16     6    17    1
    17     7    18    1
    18     7    19    1
    19     8    20    1
    20     8    21    1
    21     8    22    1
    22     9    10    1
    23     9    11    2
    24    10    23    1
    25    10    24    1
    26    10    25    1
    27    11    26    1
    28    11    27    1
