@<TRIPOS>MOLECULE
IMPHY011467
 19 20 0 0 0
SMALL
GASTEIGER

@<TRIPOS>ATOM
      1 C           2.3136   -4.6584    0.0000 C.ar    1  UNL1        0.1950
      2 C           3.4549   -3.9944    0.0000 C.ar    1  UNL1        0.0195
      3 C           3.4549   -2.6560    0.0000 C.ar    1  UNL1        0.0023
      4 C           2.3136   -2.0024    0.0000 C.ar    1  UNL1        0.0419
      5 C           1.1620   -2.6560    0.0000 C.ar    1  UNL1        0.1989
      6 C           1.1620   -3.9944    0.0000 C.ar    1  UNL1        0.0837
      7 O           2.3136   -5.9864    0.0000 O.3     1  UNL1       -0.2868
      8 C           4.6065   -4.6584    0.0000 C.3     1  UNL1        0.0628
      9 C           5.7686   -3.9944    0.0000 C.3     1  UNL1        0.1608
     10 O           6.9202   -4.6584    0.0000 O.3     1  UNL1       -0.2224
     11 O           0.0000   -2.0024    0.0000 O.3     1  UNL1       -0.2865
     12 C           5.7686   -2.6560    0.0000 C.3     1  UNL1        0.0595
     13 C           6.9202   -2.0024    0.0000 C.ar    1  UNL1       -0.0194
     14 C           6.9202   -0.6640    0.0000 C.ar    1  UNL1       -0.0009
     15 C           8.0822    0.0000    0.0000 C.ar    1  UNL1        0.0417
     16 C           9.2235   -0.6640    0.0000 C.ar    1  UNL1        0.1957
     17 C           9.2235   -2.0024    0.0000 C.ar    1  UNL1        0.0417
     18 C           8.0822   -2.6560    0.0000 C.ar    1  UNL1       -0.0009
     19 O          10.3751    0.0000    0.0000 O.3     1  UNL1       -0.2866
@<TRIPOS>BOND
     1     1     2   ar
     2     1     6   ar
     3     1     7    1
     4     2     3   ar
     5     2     8    1
     6     3     4   ar
     7     4     5   ar
     8     5     6   ar
     9     5    11    1
    10     8     9    1
    11     9    12    1
    12     9    10    1
    13    12    13    1
    14    13    14   ar
    15    13    18   ar
    16    14    15   ar
    17    15    16   ar
    18    16    17   ar
    19    16    19    1
    20    17    18   ar
