@<TRIPOS>MOLECULE
IMPHY005938
 27 26 0 0 0
SMALL
GASTEIGER

@<TRIPOS>ATOM
      1 C           2.8660   -0.0600    0.0000 C.3     1  UNL1       -0.0340
      2 C           3.7320    0.4400    0.0000 C.3     1  UNL1       -0.0271
      3 C           2.0000   -0.5600    0.0000 C.3     1  UNL1       -0.0598
      4 C           2.3660    0.8060    0.0000 C.3     1  UNL1       -0.0598
      5 C           3.3660   -0.9260    0.0000 C.3     1  UNL1       -0.0598
      6 C           4.5981   -0.0600    0.0000 C.2     1  UNL1       -0.0763
      7 C           4.5981   -1.0600    0.0000 C.3     1  UNL1       -0.0438
      8 C           5.4641    0.4400    0.0000 C.2     1  UNL1       -0.0881
      9 C           6.3301   -0.0600    0.0000 C.3     1  UNL1       -0.0466
     10 H           4.1306    0.9149    0.0000 H       1  UNL1        0.0315
     11 H           3.3335    0.9149    0.0000 H       1  UNL1        0.0315
     12 H           2.8291   -1.2360    0.0000 H       1  UNL1        0.0235
     13 H           3.6760   -1.4630    0.0000 H       1  UNL1        0.0235
     14 H           3.9030   -0.6160    0.0000 H       1  UNL1        0.0235
     15 H           2.9030    1.1160    0.0000 H       1  UNL1        0.0235
     16 H           2.0560    1.3430    0.0000 H       1  UNL1        0.0235
     17 H           1.8291    0.4960    0.0000 H       1  UNL1        0.0235
     18 H           1.6900   -0.0231    0.0000 H       1  UNL1        0.0235
     19 H           1.4631   -0.8700    0.0000 H       1  UNL1        0.0235
     20 H           2.3100   -1.0969    0.0000 H       1  UNL1        0.0235
     21 H           3.9781   -1.0600    0.0000 H       1  UNL1        0.0274
     22 H           4.5981   -1.6800    0.0000 H       1  UNL1        0.0274
     23 H           5.2181   -1.0600    0.0000 H       1  UNL1        0.0274
     24 H           5.4641    1.0600    0.0000 H       1  UNL1        0.0569
     25 H           6.0201   -0.5969    0.0000 H       1  UNL1        0.0272
     26 H           6.8671   -0.3700    0.0000 H       1  UNL1        0.0272
     27 H           6.6401    0.4769    0.0000 H       1  UNL1        0.0272
@<TRIPOS>BOND
     1     1     2    1
     2     1     3    1
     3     1     4    1
     4     1     5    1
     5     2     6    1
     6     2    10    1
     7     2    11    1
     8     3    18    1
     9     3    19    1
    10     3    20    1
    11     4    15    1
    12     4    16    1
    13     4    17    1
    14     5    12    1
    15     5    13    1
    16     5    14    1
    17     6     7    1
    18     6     8    2
    19     7    21    1
    20     7    22    1
    21     7    23    1
    22     8     9    1
    23     8    24    1
    24     9    25    1
    25     9    26    1
    26     9    27    1
