@<TRIPOS>MOLECULE
IMPHY017676
 21 21 0 0 0
SMALL
GASTEIGER

@<TRIPOS>ATOM
      1 O           2.8660    0.2500    0.0000 O.3     1  UNL1       -0.4944
      2 O           3.7320    1.7500    0.0000 O.2     1  UNL1       -0.2922
      3 C           4.5981    0.2500    0.0000 C.ar    1  UNL1        0.0587
      4 C           3.7320   -0.2500    0.0000 C.ar    1  UNL1        0.1305
      5 C           5.4641   -0.2500    0.0000 C.ar    1  UNL1       -0.0477
      6 C           3.7320   -1.2500    0.0000 C.ar    1  UNL1       -0.0193
      7 C           4.5981    1.2500    0.0000 C.2     1  UNL1        0.1636
      8 C           5.4641   -1.2500    0.0000 C.ar    1  UNL1       -0.0609
      9 C           4.5981   -1.7500    0.0000 C.ar    1  UNL1       -0.0583
     10 C           5.4641    1.7500    0.0000 C.3     1  UNL1       -0.0013
     11 C           2.0000   -0.2500    0.0000 C.3     1  UNL1        0.0788
     12 H           6.0010    0.0600    0.0000 H       1  UNL1        0.0626
     13 H           3.1951   -1.5600    0.0000 H       1  UNL1        0.0654
     14 H           6.0010   -1.5600    0.0000 H       1  UNL1        0.0618
     15 H           4.5981   -2.3700    0.0000 H       1  UNL1        0.0619
     16 H           5.7741    1.2131    0.0000 H       1  UNL1        0.0309
     17 H           6.0010    2.0600    0.0000 H       1  UNL1        0.0309
     18 H           5.1541    2.2869    0.0000 H       1  UNL1        0.0309
     19 H           1.6900    0.2869    0.0000 H       1  UNL1        0.0660
     20 H           1.4631   -0.5600    0.0000 H       1  UNL1        0.0660
     21 H           2.3100   -0.7869    0.0000 H       1  UNL1        0.0660
@<TRIPOS>BOND
     1     1     4    1
     2     1    11    1
     3     2     7    2
     4     3     4   ar
     5     3     5   ar
     6     3     7    1
     7     4     6   ar
     8     5     8   ar
     9     5    12    1
    10     6     9   ar
    11     6    13    1
    12     7    10    1
    13     8     9   ar
    14     8    14    1
    15     9    15    1
    16    10    16    1
    17    10    17    1
    18    10    18    1
    19    11    19    1
    20    11    20    1
    21    11    21    1
