@<TRIPOS>MOLECULE
IMPHY006521
 137 138 0 0 0
SMALL
GASTEIGER

@<TRIPOS>ATOM
      1 O           5.4920   -7.0901    0.0000 O.3     1  UNL1       -0.4854
      2 O           2.0000   -5.0555    0.0000 O.3     1  UNL1       -0.5065
      3 C           6.3981   -6.5763    0.0000 C.3     1  UNL1        0.1085
      4 C           6.3981   -5.5346    0.0000 C.3     1  UNL1       -0.0091
      5 C           7.3981   -6.5801    0.0000 C.3     1  UNL1       -0.0097
      6 C           5.4920   -5.0208    0.0000 C.3     1  UNL1       -0.0205
      7 C           4.5981   -5.5555    0.0000 C.ar    1  UNL1       -0.0018
      8 C           6.8947   -7.4442    0.0000 C.3     1  UNL1       -0.0249
      9 C           4.5981   -6.5555    0.0000 C.ar    1  UNL1        0.1278
     10 C           7.9014   -5.7160    0.0000 C.3     1  UNL1       -0.0309
     11 C           3.7320   -7.0555    0.0000 C.ar    1  UNL1       -0.0021
     12 C           3.7320   -5.0555    0.0000 C.ar    1  UNL1       -0.0133
     13 C           2.8660   -6.5555    0.0000 C.ar    1  UNL1       -0.0027
     14 C           2.8660   -5.5555    0.0000 C.ar    1  UNL1        0.1205
     15 C           8.9014   -5.7199    0.0000 C.2     1  UNL1       -0.0849
     16 C           3.7320   -8.0555    0.0000 C.3     1  UNL1       -0.0359
     17 C           9.4047   -4.8558    0.0000 C.2     1  UNL1       -0.0762
     18 C           2.0000   -7.0555    0.0000 C.3     1  UNL1       -0.0359
     19 C          10.4047   -4.8597    0.0000 C.3     1  UNL1       -0.0286
     20 C           8.9081   -3.9879    0.0000 C.3     1  UNL1       -0.0438
     21 C          10.9081   -3.9956    0.0000 C.3     1  UNL1       -0.0308
     22 C          11.9081   -3.9994    0.0000 C.2     1  UNL1       -0.0847
     23 C          12.4114   -3.1353    0.0000 C.2     1  UNL1       -0.0762
     24 C          13.4114   -3.1392    0.0000 C.3     1  UNL1       -0.0286
     25 C          11.9147   -2.2674    0.0000 C.3     1  UNL1       -0.0438
     26 C          13.9147   -2.2751    0.0000 C.3     1  UNL1       -0.0308
     27 C          14.9147   -2.2790    0.0000 C.2     1  UNL1       -0.0847
     28 C          15.4180   -1.4149    0.0000 C.2     1  UNL1       -0.0762
     29 C          16.4180   -1.4187    0.0000 C.3     1  UNL1       -0.0286
     30 C          16.9214   -0.5546    0.0000 C.3     1  UNL1       -0.0308
     31 C          14.9214   -0.5469    0.0000 C.3     1  UNL1       -0.0438
     32 C          19.4247    0.3018    0.0000 C.3     1  UNL1       -0.0286
     33 C          18.4247    0.3056    0.0000 C.2     1  UNL1       -0.0762
     34 C          17.9214   -0.5585    0.0000 C.2     1  UNL1       -0.0847
     35 C          19.9280    1.1659    0.0000 C.3     1  UNL1       -0.0308
     36 C          22.4313    2.0222    0.0000 C.3     1  UNL1       -0.0286
     37 C          21.4314    2.0261    0.0000 C.2     1  UNL1       -0.0762
     38 C          22.9347    2.8863    0.0000 C.3     1  UNL1       -0.0308
     39 C          20.9280    1.1620    0.0000 C.2     1  UNL1       -0.0847
     40 C          25.4380    3.7427    0.0000 C.3     1  UNL1       -0.0286
     41 C          24.4380    3.7466    0.0000 C.2     1  UNL1       -0.0762
     42 C          23.9347    2.8825    0.0000 C.2     1  UNL1       -0.0847
     43 C          25.9413    4.6068    0.0000 C.3     1  UNL1       -0.0308
     44 C          17.9280    1.1736    0.0000 C.3     1  UNL1       -0.0438
     45 C          20.9347    2.8940    0.0000 C.3     1  UNL1       -0.0438
     46 C          26.9413    4.6030    0.0000 C.2     1  UNL1       -0.0847
     47 C          27.4447    5.4670    0.0000 C.2     1  UNL1       -0.0762
     48 C          28.4447    5.4632    0.0000 C.3     1  UNL1       -0.0286
     49 C          23.9414    4.6145    0.0000 C.3     1  UNL1       -0.0438
     50 C          28.9480    6.3273    0.0000 C.3     1  UNL1       -0.0308
     51 C          26.9480    6.3350    0.0000 C.3     1  UNL1       -0.0438
     52 C          29.9480    6.3234    0.0000 C.2     1  UNL1       -0.0850
     53 C          30.4513    7.1875    0.0000 C.2     1  UNL1       -0.0796
     54 C          31.4513    7.1837    0.0000 C.3     1  UNL1       -0.0440
     55 C          29.9547    8.0555    0.0000 C.3     1  UNL1       -0.0440
     56 H           7.0089   -5.6407    0.0000 H       1  UNL1        0.0307
     57 H           6.6071   -4.9510    0.0000 H       1  UNL1        0.0307
     58 H           7.2881   -7.1903    0.0000 H       1  UNL1        0.0306
     59 H           7.9799   -6.7944    0.0000 H       1  UNL1        0.0306
     60 H           5.8856   -4.5418    0.0000 H       1  UNL1        0.0316
     61 H           5.0874   -4.5510    0.0000 H       1  UNL1        0.0316
     62 H           6.3566   -7.7522    0.0000 H       1  UNL1        0.0268
     63 H           7.2027   -7.9824    0.0000 H       1  UNL1        0.0268
     64 H           7.4329   -7.1363    0.0000 H       1  UNL1        0.0268
     65 H           8.0114   -5.1059    0.0000 H       1  UNL1        0.0309
     66 H           7.3196   -5.5017    0.0000 H       1  UNL1        0.0309
     67 H           3.7320   -4.4355    0.0000 H       1  UNL1        0.0658
     68 H           9.2093   -6.2580    0.0000 H       1  UNL1        0.0572
     69 H           3.1120   -8.0555    0.0000 H       1  UNL1        0.0279
     70 H           3.7320   -8.6755    0.0000 H       1  UNL1        0.0279
     71 H           4.3520   -8.0555    0.0000 H       1  UNL1        0.0279
     72 H           1.6900   -6.5185    0.0000 H       1  UNL1        0.0279
     73 H           1.4631   -7.3655    0.0000 H       1  UNL1        0.0279
     74 H           2.3100   -7.5924    0.0000 H       1  UNL1        0.0279
     75 H          10.2947   -5.4698    0.0000 H       1  UNL1        0.0313
     76 H          10.9865   -5.0740    0.0000 H       1  UNL1        0.0313
     77 H           9.4462   -3.6799    0.0000 H       1  UNL1        0.0274
     78 H           8.6002   -3.4497    0.0000 H       1  UNL1        0.0274
     79 H           8.3700   -4.2958    0.0000 H       1  UNL1        0.0274
     80 H           2.0000   -4.4355    0.0000 H       1  UNL1        0.2921
     81 H          11.0181   -3.3854    0.0000 H       1  UNL1        0.0310
     82 H          10.3263   -3.7813    0.0000 H       1  UNL1        0.0310
     83 H          12.2160   -4.5376    0.0000 H       1  UNL1        0.0572
     84 H          13.3014   -3.7494    0.0000 H       1  UNL1        0.0313
     85 H          13.9932   -3.3535    0.0000 H       1  UNL1        0.0313
     86 H          12.4529   -1.9595    0.0000 H       1  UNL1        0.0274
     87 H          11.6068   -1.7293    0.0000 H       1  UNL1        0.0274
     88 H          11.3766   -2.5753    0.0000 H       1  UNL1        0.0274
     89 H          14.0247   -1.6649    0.0000 H       1  UNL1        0.0310
     90 H          13.3329   -2.0608    0.0000 H       1  UNL1        0.0310
     91 H          15.2226   -2.8171    0.0000 H       1  UNL1        0.0572
     92 H          16.3080   -2.0289    0.0000 H       1  UNL1        0.0313
     93 H          16.9998   -1.6330    0.0000 H       1  UNL1        0.0313
     94 H          17.0314    0.0555    0.0000 H       1  UNL1        0.0310
     95 H          16.3396   -0.3403    0.0000 H       1  UNL1        0.0310
     96 H          19.3147   -0.3084    0.0000 H       1  UNL1        0.0313
     97 H          20.0065    0.0875    0.0000 H       1  UNL1        0.0313
     98 H          15.4595   -0.2390    0.0000 H       1  UNL1        0.0274
     99 H          14.6135   -0.0088    0.0000 H       1  UNL1        0.0274
    100 H          14.3833   -0.8548    0.0000 H       1  UNL1        0.0274
    101 H          18.2293   -1.0966    0.0000 H       1  UNL1        0.0572
    102 H          20.0380    1.7760    0.0000 H       1  UNL1        0.0310
    103 H          19.3462    1.3802    0.0000 H       1  UNL1        0.0310
    104 H          22.3213    1.4121    0.0000 H       1  UNL1        0.0313
    105 H          23.0131    1.8079    0.0000 H       1  UNL1        0.0313
    106 H          23.0447    3.4965    0.0000 H       1  UNL1        0.0310
    107 H          22.3529    3.1006    0.0000 H       1  UNL1        0.0310
    108 H          21.2359    0.6239    0.0000 H       1  UNL1        0.0572
    109 H          25.3280    3.1326    0.0000 H       1  UNL1        0.0313
    110 H          26.0198    3.5284    0.0000 H       1  UNL1        0.0313
    111 H          24.2426    2.3444    0.0000 H       1  UNL1        0.0572
    112 H          26.0513    5.2170    0.0000 H       1  UNL1        0.0310
    113 H          25.3595    4.8211    0.0000 H       1  UNL1        0.0310
    114 H          18.4662    1.4815    0.0000 H       1  UNL1        0.0274
    115 H          17.6201    1.7117    0.0000 H       1  UNL1        0.0274
    116 H          17.3899    0.8656    0.0000 H       1  UNL1        0.0274
    117 H          21.4728    3.2020    0.0000 H       1  UNL1        0.0274
    118 H          20.6268    3.4322    0.0000 H       1  UNL1        0.0274
    119 H          20.3966    2.5861    0.0000 H       1  UNL1        0.0274
    120 H          27.2493    4.0648    0.0000 H       1  UNL1        0.0572
    121 H          28.3346    4.8530    0.0000 H       1  UNL1        0.0313
    122 H          29.0264    5.2489    0.0000 H       1  UNL1        0.0313
    123 H          24.4795    4.9224    0.0000 H       1  UNL1        0.0274
    124 H          23.6334    5.1526    0.0000 H       1  UNL1        0.0274
    125 H          23.4032    4.3066    0.0000 H       1  UNL1        0.0274
    126 H          29.0580    6.9374    0.0000 H       1  UNL1        0.0310
    127 H          28.3662    6.5416    0.0000 H       1  UNL1        0.0310
    128 H          27.4861    6.6429    0.0000 H       1  UNL1        0.0274
    129 H          26.6401    6.8731    0.0000 H       1  UNL1        0.0274
    130 H          26.4099    6.0271    0.0000 H       1  UNL1        0.0274
    131 H          30.2559    5.7853    0.0000 H       1  UNL1        0.0572
    132 H          30.4928    8.3634    0.0000 H       1  UNL1        0.0274
    133 H          29.6467    8.5936    0.0000 H       1  UNL1        0.0274
    134 H          29.4165    7.7475    0.0000 H       1  UNL1        0.0274
    135 H          31.4489    6.5637    0.0000 H       1  UNL1        0.0274
    136 H          32.0713    7.1813    0.0000 H       1  UNL1        0.0274
    137 H          31.4537    7.8037    0.0000 H       1  UNL1        0.0274
@<TRIPOS>BOND
     1     1     3    1
     2     1     9    1
     3     2    14    1
     4     2    80    1
     5     3     4    1
     6     3     5    1
     7     3     8    1
     8     4     6    1
     9     4    56    1
    10     4    57    1
    11     5    10    1
    12     5    58    1
    13     5    59    1
    14     6     7    1
    15     6    60    1
    16     6    61    1
    17     7     9   ar
    18     7    12   ar
    19     8    62    1
    20     8    63    1
    21     8    64    1
    22     9    11   ar
    23    10    15    1
    24    10    65    1
    25    10    66    1
    26    11    13   ar
    27    11    16    1
    28    12    14   ar
    29    12    67    1
    30    13    14   ar
    31    13    18    1
    32    15    17    2
    33    15    68    1
    34    16    69    1
    35    16    70    1
    36    16    71    1
    37    17    19    1
    38    17    20    1
    39    18    72    1
    40    18    73    1
    41    18    74    1
    42    19    21    1
    43    19    75    1
    44    19    76    1
    45    20    77    1
    46    20    78    1
    47    20    79    1
    48    21    22    1
    49    21    81    1
    50    21    82    1
    51    22    23    2
    52    22    83    1
    53    23    24    1
    54    23    25    1
    55    24    26    1
    56    24    84    1
    57    24    85    1
    58    25    86    1
    59    25    87    1
    60    25    88    1
    61    26    27    1
    62    26    89    1
    63    26    90    1
    64    27    28    2
    65    27    91    1
    66    28    29    1
    67    28    31    1
    68    29    30    1
    69    29    92    1
    70    29    93    1
    71    30    34    1
    72    30    94    1
    73    30    95    1
    74    31    98    1
    75    31    99    1
    76    31   100    1
    77    32    33    1
    78    32    35    1
    79    32    96    1
    80    32    97    1
    81    33    34    2
    82    33    44    1
    83    34   101    1
    84    35    39    1
    85    35   102    1
    86    35   103    1
    87    36    37    1
    88    36    38    1
    89    36   104    1
    90    36   105    1
    91    37    39    2
    92    37    45    1
    93    38    42    1
    94    38   106    1
    95    38   107    1
    96    39   108    1
    97    40    41    1
    98    40    43    1
    99    40   109    1
   100    40   110    1
   101    41    42    2
   102    41    49    1
   103    42   111    1
   104    43    46    1
   105    43   112    1
   106    43   113    1
   107    44   114    1
   108    44   115    1
   109    44   116    1
   110    45   117    1
   111    45   118    1
   112    45   119    1
   113    46    47    2
   114    46   120    1
   115    47    48    1
   116    47    51    1
   117    48    50    1
   118    48   121    1
   119    48   122    1
   120    49   123    1
   121    49   124    1
   122    49   125    1
   123    50    52    1
   124    50   126    1
   125    50   127    1
   126    51   128    1
   127    51   129    1
   128    51   130    1
   129    52    53    2
   130    52   131    1
   131    53    54    1
   132    53    55    1
   133    54   135    1
   134    54   136    1
   135    54   137    1
   136    55   132    1
   137    55   133    1
   138    55   134    1
