@<TRIPOS>MOLECULE
IMPHY002377
 18 20 0 0 0
SMALL
GASTEIGER

@<TRIPOS>ATOM
      1 O        2482.7300 2520.0000    0.0000 O.3     1  UNL1       -0.4717
      2 C        2441.3400 2543.9200    0.0000 C.3     1  UNL1        0.2525
      3 C        2482.7300 2480.0000    0.0000 C.ar    1  UNL1        0.1376
      4 C        2517.3700 2460.0500    0.0000 C.ar    1  UNL1        0.0075
      5 C        2552.1100 2480.0000    0.0000 C.3     1  UNL1        0.0226
      6 C        2586.6500 2460.0500    0.0000 C.3     1  UNL1        0.0088
      7 C        2586.6500 2420.0500    0.0000 C.3     1  UNL1        0.0266
      8 C        2517.3700 2420.0500    0.0000 C.ar    1  UNL1       -0.0201
      9 C        2482.7300 2400.0000    0.0000 C.ar    1  UNL1        0.0377
     10 C        2447.9900 2420.0500    0.0000 C.ar    1  UNL1        0.1984
     11 C        2447.9900 2460.0500    0.0000 C.ar    1  UNL1        0.0785
     12 O        2413.3500 2400.0000    0.0000 O.3     1  UNL1       -0.2865
     13 C        2517.3700 2500.0500    0.0000 C.3     1  UNL1        0.0119
     14 C        2517.3700 2540.0500    0.0000 C.3     1  UNL1        0.0648
     15 C        2552.1100 2560.0000    0.0000 C.2     1  UNL1        0.1507
     16 C        2586.6500 2540.0500    0.0000 C.3     1  UNL1        0.0648
     17 C        2586.6500 2500.0500    0.0000 C.3     1  UNL1        0.0119
     18 O        2552.1100 2600.0000    0.0000 O.2     1  UNL1       -0.2961
@<TRIPOS>BOND
     1     1     2    1
     2     1     3    1
     3     3     4   ar
     4     3    11   ar
     5     4     5    1
     6     4     8   ar
     7     5     6    1
     8     5    13    1
     9     5    17    1
    10     6     7    1
    11     8     7    1
    12     8     9   ar
    13    10     9   ar
    14    10    12    1
    15    11    10   ar
    16    13    14    1
    17    14    15    1
    18    15    18    2
    19    16    15    1
    20    17    16    1
