@<TRIPOS>MOLECULE
IMPHY008793
 41 43 0 0 0
SMALL
GASTEIGER

@<TRIPOS>ATOM
      1 C           4.5037   -0.8508    0.0000 C.3     1  UNL1       -0.0290
      2 C           5.3302   -1.4146    0.0000 C.3     1  UNL1       -0.0284
      3 C           5.4047   -0.4169    0.0000 C.3     1  UNL1       -0.0320
      4 C           3.6027   -0.4169    0.0000 C.3     1  UNL1       -0.0318
      5 C           3.3802    0.5580    0.0000 C.3     1  UNL1       -0.0351
      6 C           5.6272    0.5580    0.0000 C.3     1  UNL1       -0.0492
      7 C           2.7480   -0.9246    0.0000 C.3     1  UNL1       -0.0405
      8 C           4.0037    1.3398    0.0000 C.3     1  UNL1       -0.0408
      9 C           2.3899    0.6446    0.0000 C.3     1  UNL1       -0.0494
     10 C           5.0037    1.3398    0.0000 C.3     1  UNL1       -0.0499
     11 C           6.3274   -1.4893    0.0000 C.3     1  UNL1       -0.0593
     12 C           4.7668   -2.2408    0.0000 C.3     1  UNL1       -0.0593
     13 C           2.0000   -0.2699    0.0000 C.3     1  UNL1       -0.0499
     14 C           2.6567   -1.9204    0.0000 C.3     1  UNL1       -0.0621
     15 C           3.5698    2.2408    0.0000 C.3     1  UNL1       -0.0622
     16 H           4.1936   -1.3877    0.0000 H       1  UNL1        0.0312
     17 H           6.0178   -0.5092    0.0000 H       1  UNL1        0.0309
     18 H           3.6298   -1.0363    0.0000 H       1  UNL1        0.0309
     19 H           3.1358    1.1278    0.0000 H       1  UNL1        0.0306
     20 H           6.1858    0.2890    0.0000 H       1  UNL1        0.0268
     21 H           6.0138    1.0428    0.0000 H       1  UNL1        0.0268
     22 H           3.2723   -1.2556    0.0000 H       1  UNL1        0.0301
     23 H           4.3336    1.8648    0.0000 H       1  UNL1        0.0301
     24 H           2.5085    1.2531    0.0000 H       1  UNL1        0.0268
     25 H           1.7972    0.8264    0.0000 H       1  UNL1        0.0268
     26 H           5.5623    1.6089    0.0000 H       1  UNL1        0.0268
     27 H           4.8657    1.9443    0.0000 H       1  UNL1        0.0268
     28 H           4.2546   -1.8916    0.0000 H       1  UNL1        0.0235
     29 H           4.4176   -2.7531    0.0000 H       1  UNL1        0.0235
     30 H           5.2791   -2.5901    0.0000 H       1  UNL1        0.0235
     31 H           6.2810   -2.1076    0.0000 H       1  UNL1        0.0235
     32 H           6.9456   -1.5356    0.0000 H       1  UNL1        0.0235
     33 H           6.3737   -0.8710    0.0000 H       1  UNL1        0.0235
     34 H           1.4584    0.0319    0.0000 H       1  UNL1        0.0268
     35 H           1.6430   -0.7768    0.0000 H       1  UNL1        0.0268
     36 H           2.0393   -1.8637    0.0000 H       1  UNL1        0.0233
     37 H           2.6000   -2.5378    0.0000 H       1  UNL1        0.0233
     38 H           3.2741   -1.9770    0.0000 H       1  UNL1        0.0233
     39 H           4.1284    2.5098    0.0000 H       1  UNL1        0.0233
     40 H           3.3008    2.7994    0.0000 H       1  UNL1        0.0233
     41 H           3.0112    1.9718    0.0000 H       1  UNL1        0.0233
@<TRIPOS>BOND
     1     1     2    1
     2     1     3    1
     3     1     4    1
     4     1    16    1
     5     2     3    1
     6     2    11    1
     7     2    12    1
     8     3     6    1
     9     3    17    1
    10     4     5    1
    11     4     7    1
    12     4    18    1
    13     5     8    1
    14     5     9    1
    15     5    19    1
    16     6    10    1
    17     6    20    1
    18     6    21    1
    19     7    13    1
    20     7    14    1
    21     7    22    1
    22     8    10    1
    23     8    15    1
    24     8    23    1
    25     9    13    1
    26     9    24    1
    27     9    25    1
    28    10    26    1
    29    10    27    1
    30    11    31    1
    31    11    32    1
    32    11    33    1
    33    12    28    1
    34    12    29    1
    35    12    30    1
    36    13    34    1
    37    13    35    1
    38    14    36    1
    39    14    37    1
    40    14    38    1
    41    15    39    1
    42    15    40    1
    43    15    41    1
