@<TRIPOS>MOLECULE
IMPHY016616
 20 19 0 0 0
SMALL
GASTEIGER

@<TRIPOS>ATOM
      1 O           3.7320    0.2500    0.0000 O.3     1  UNL1       -0.4569
      2 O           6.3301   -0.2500    0.0000 O.3     1  UNL1       -0.4569
      3 O           4.5981   -1.2500    0.0000 O.2     1  UNL1       -0.2376
      4 O           5.4641    1.2500    0.0000 O.2     1  UNL1       -0.2376
      5 C           2.8660   -0.2500    0.0000 C.3     1  UNL1        0.0902
      6 C           7.1962    0.2500    0.0000 C.3     1  UNL1        0.0902
      7 C           2.0000    0.2500    0.0000 C.3     1  UNL1       -0.0306
      8 C           8.0622   -0.2500    0.0000 C.3     1  UNL1       -0.0306
      9 C           4.5981   -0.2500    0.0000 C.2     1  UNL1        0.4173
     10 C           5.4641    0.2500    0.0000 C.2     1  UNL1        0.4173
     11 H           2.4675   -0.7249    0.0000 H       1  UNL1        0.0695
     12 H           3.2646   -0.7249    0.0000 H       1  UNL1        0.0695
     13 H           7.5947    0.7249    0.0000 H       1  UNL1        0.0695
     14 H           6.7976    0.7249    0.0000 H       1  UNL1        0.0695
     15 H           2.3100    0.7869    0.0000 H       1  UNL1        0.0262
     16 H           1.4631    0.5600    0.0000 H       1  UNL1        0.0262
     17 H           1.6900   -0.2869    0.0000 H       1  UNL1        0.0262
     18 H           7.7522   -0.7869    0.0000 H       1  UNL1        0.0262
     19 H           8.5991   -0.5600    0.0000 H       1  UNL1        0.0262
     20 H           8.3722    0.2869    0.0000 H       1  UNL1        0.0262
@<TRIPOS>BOND
     1     1     5    1
     2     1     9    1
     3     2     6    1
     4     2    10    1
     5     3     9    2
     6     4    10    2
     7     5     7    1
     8     5    11    1
     9     5    12    1
    10     6     8    1
    11     6    13    1
    12     6    14    1
    13     7    15    1
    14     7    16    1
    15     7    17    1
    16     8    18    1
    17     8    19    1
    18     8    20    1
    19     9    10    1
