@<TRIPOS>MOLECULE
IMPHY011593
 41 40 0 0 0
SMALL
GASTEIGER

@<TRIPOS>ATOM
      1 O           9.7942   -1.2500    0.0000 O.2     1  UNL1       -0.2708
      2 N          10.6603    0.2500    0.0000 N.am    1  UNL1       -0.3116
      3 C          12.3923    0.2500    0.0000 C.3     1  UNL1       -0.0311
      4 C           3.7320    0.2500    0.0000 C.3     1  UNL1       -0.0530
      5 C           4.5981   -0.2500    0.0000 C.3     1  UNL1       -0.0496
      6 C          11.5263   -0.2500    0.0000 C.3     1  UNL1        0.0142
      7 C           2.8660   -0.2500    0.0000 C.3     1  UNL1       -0.0559
      8 C           5.4641    0.2500    0.0000 C.3     1  UNL1       -0.0345
      9 C          13.2583   -0.2500    0.0000 C.3     1  UNL1       -0.0612
     10 C          12.3923    1.2500    0.0000 C.3     1  UNL1       -0.0612
     11 C           2.0000    0.2500    0.0000 C.3     1  UNL1       -0.0653
     12 C           6.3301   -0.2500    0.0000 C.2     1  UNL1       -0.0840
     13 C           9.7942   -0.2500    0.0000 C.2     1  UNL1        0.2369
     14 C           7.1962    0.2500    0.0000 C.2     1  UNL1       -0.0655
     15 C           8.9282    0.2500    0.0000 C.2     1  UNL1        0.0001
     16 C           8.0622   -0.2500    0.0000 C.2     1  UNL1       -0.0571
     17 H          11.8554    0.5600    0.0000 H       1  UNL1        0.0311
     18 H           4.1306    0.7249    0.0000 H       1  UNL1        0.0265
     19 H           3.3335    0.7249    0.0000 H       1  UNL1        0.0265
     20 H           4.1996   -0.7249    0.0000 H       1  UNL1        0.0268
     21 H           4.9966   -0.7249    0.0000 H       1  UNL1        0.0268
     22 H          11.1278   -0.7249    0.0000 H       1  UNL1        0.0465
     23 H          11.9248   -0.7249    0.0000 H       1  UNL1        0.0465
     24 H           2.4675   -0.7249    0.0000 H       1  UNL1        0.0263
     25 H           3.2646   -0.7249    0.0000 H       1  UNL1        0.0263
     26 H           5.8626    0.7249    0.0000 H       1  UNL1        0.0307
     27 H           5.0656    0.7249    0.0000 H       1  UNL1        0.0307
     28 H          13.0123    1.2500    0.0000 H       1  UNL1        0.0233
     29 H          12.3923    1.8700    0.0000 H       1  UNL1        0.0233
     30 H          11.7723    1.2500    0.0000 H       1  UNL1        0.0233
     31 H          12.9483   -0.7869    0.0000 H       1  UNL1        0.0233
     32 H          13.7953   -0.5600    0.0000 H       1  UNL1        0.0233
     33 H          13.5683    0.2869    0.0000 H       1  UNL1        0.0233
     34 H          10.6603    0.8700    0.0000 H       1  UNL1        0.1490
     35 H           2.3100    0.7869    0.0000 H       1  UNL1        0.0230
     36 H           1.4631    0.5600    0.0000 H       1  UNL1        0.0230
     37 H           1.6900   -0.2869    0.0000 H       1  UNL1        0.0230
     38 H           6.3301   -0.8700    0.0000 H       1  UNL1        0.0572
     39 H           7.1962    0.8700    0.0000 H       1  UNL1        0.0614
     40 H           8.9282    0.8700    0.0000 H       1  UNL1        0.0669
     41 H           8.0622   -0.8700    0.0000 H       1  UNL1        0.0619
@<TRIPOS>BOND
     1     1    13    2
     2     2     6    1
     3     2    13   am
     4     2    34    1
     5     3     6    1
     6     3     9    1
     7     3    10    1
     8     3    17    1
     9     4     5    1
    10     4     7    1
    11     4    18    1
    12     4    19    1
    13     5     8    1
    14     5    20    1
    15     5    21    1
    16     6    22    1
    17     6    23    1
    18     7    11    1
    19     7    24    1
    20     7    25    1
    21     8    12    1
    22     8    26    1
    23     8    27    1
    24     9    31    1
    25     9    32    1
    26     9    33    1
    27    10    28    1
    28    10    29    1
    29    10    30    1
    30    11    35    1
    31    11    36    1
    32    11    37    1
    33    12    14    2
    34    12    38    1
    35    13    15    1
    36    14    16    1
    37    14    39    1
    38    15    16    2
    39    15    40    1
    40    16    41    1
