@<TRIPOS>MOLECULE
IMPHY010385
 36 37 0 0 0
SMALL
GASTEIGER

@<TRIPOS>ATOM
      1 O           4.6260   -1.2177    0.0000 O.3     1  UNL1       -0.3664
      2 C           3.7320    0.3170    0.0000 C.3     1  UNL1       -0.0030
      3 C           2.8660    0.8170    0.0000 C.3     1  UNL1       -0.0257
      4 C           3.7320   -0.6830    0.0000 C.3     1  UNL1        0.0884
      5 C           4.6260    0.8516    0.0000 C.3     1  UNL1       -0.0445
      6 C           2.0000    0.3170    0.0000 C.3     1  UNL1       -0.0291
      7 C           5.5321    0.3378    0.0000 C.3     1  UNL1       -0.0265
      8 C           5.5321   -0.7038    0.0000 C.3     1  UNL1        0.0570
      9 C           2.8660   -1.1830    0.0000 C.2     1  UNL1       -0.0565
     10 C           2.3660    1.6830    0.0000 C.3     1  UNL1       -0.0592
     11 C           3.3660    1.6830    0.0000 C.3     1  UNL1       -0.0592
     12 C           3.7320   -1.6830    0.0000 C.3     1  UNL1       -0.0319
     13 C           2.0000   -0.6830    0.0000 C.2     1  UNL1       -0.0847
     14 C           6.3961   -1.2072    0.0000 C.3     1  UNL1       -0.0387
     15 H           3.7255    1.1670    0.0000 H       1  UNL1        0.0337
     16 H           5.0196    1.3307    0.0000 H       1  UNL1        0.0270
     17 H           4.2214    1.3214    0.0000 H       1  UNL1        0.0270
     18 H           1.7880    0.8996    0.0000 H       1  UNL1        0.0313
     19 H           1.3894    0.2093    0.0000 H       1  UNL1        0.0313
     20 H           6.1429    0.2317    0.0000 H       1  UNL1        0.0290
     21 H           5.7411    0.9215    0.0000 H       1  UNL1        0.0290
     22 H           5.5285   -1.3238    0.0000 H       1  UNL1        0.0593
     23 H           2.8660   -1.8030    0.0000 H       1  UNL1        0.0597
     24 H           2.9030    1.9930    0.0000 H       1  UNL1        0.0235
     25 H           2.0560    2.2200    0.0000 H       1  UNL1        0.0235
     26 H           1.8291    1.3730    0.0000 H       1  UNL1        0.0235
     27 H           3.9030    1.3730    0.0000 H       1  UNL1        0.0235
     28 H           3.6760    2.2200    0.0000 H       1  UNL1        0.0235
     29 H           2.8291    1.9930    0.0000 H       1  UNL1        0.0235
     30 H           3.1120   -1.6830    0.0000 H       1  UNL1        0.0261
     31 H           3.7320   -2.3030    0.0000 H       1  UNL1        0.0261
     32 H           4.3520   -1.6830    0.0000 H       1  UNL1        0.0261
     33 H           1.4631   -0.9930    0.0000 H       1  UNL1        0.0570
     34 H           6.0841   -1.7429    0.0000 H       1  UNL1        0.0255
     35 H           6.9319   -1.5192    0.0000 H       1  UNL1        0.0255
     36 H           6.7082   -0.6714    0.0000 H       1  UNL1        0.0255
@<TRIPOS>BOND
     1     1     4    1
     2     1     8    1
     3     2     3    1
     4     2     4    1
     5     2     5    1
     6     2    15    1
     7     3     6    1
     8     3    10    1
     9     3    11    1
    10     4     9    1
    11     4    12    1
    12     5     7    1
    13     5    16    1
    14     5    17    1
    15     6    13    1
    16     6    18    1
    17     6    19    1
    18     7     8    1
    19     7    20    1
    20     7    21    1
    21     8    14    1
    22     8    22    1
    23     9    13    2
    24     9    23    1
    25    10    24    1
    26    10    25    1
    27    10    26    1
    28    11    27    1
    29    11    28    1
    30    11    29    1
    31    12    30    1
    32    12    31    1
    33    12    32    1
    34    13    33    1
    35    14    34    1
    36    14    35    1
    37    14    36    1
