@<TRIPOS>MOLECULE
IMPHY003158
 108 113 0 0 0
SMALL
GASTEIGER

@<TRIPOS>ATOM
      1 O           5.1483   -5.8315    0.0000 O.3     1  UNL1       -0.3684
      2 O           6.3178   -4.2219    0.0000 O.3     1  UNL1       -0.4528
      3 O           7.0057   -3.3695    0.0000 O.3     1  UNL1       -0.4545
      4 O           7.4821   -2.0230    0.0000 O.3     1  UNL1       -0.3839
      5 O           2.4962   -3.1749    0.0000 O.3     1  UNL1       -0.3907
      6 O           2.8690   -2.0230    0.0000 O.2     1  UNL1       -0.2936
      7 O           3.5446   -0.3921    0.0000 O.3     1  UNL1       -0.3799
      8 O           7.5875    0.3889    0.0000 O.3     1  UNL1       -0.4550
      9 O           7.6038   -5.3822    0.0000 O.2     1  UNL1       -0.2511
     10 O           8.4245   -2.3761    0.0000 O.2     1  UNL1       -0.2449
     11 O           6.3628    1.6137    0.0000 O.2     1  UNL1       -0.2478
     12 O           9.0017    1.8031    0.0000 O.3     1  UNL1       -0.3786
     13 O           7.2593    4.9597    0.0000 O.2     1  UNL1       -0.2706
     14 N           6.8110    3.2867    0.0000 N.am    1  UNL1       -0.3017
     15 C           5.1755   -3.3296    0.0000 C.3     1  UNL1        0.0580
     16 C           5.3274   -4.3601    0.0000 C.3     1  UNL1        0.1696
     17 C           4.2517   -2.9469    0.0000 C.3     1  UNL1        0.0651
     18 C           4.5059   -5.0006    0.0000 C.3     1  UNL1        0.1035
     19 C           6.0994   -2.9469    0.0000 C.3     1  UNL1        0.1404
     20 C           6.4821   -2.0230    0.0000 C.3     1  UNL1        0.1156
     21 C           3.4156   -3.5682    0.0000 C.3     1  UNL1        0.0704
     22 C           3.5436   -4.6020    0.0000 C.3     1  UNL1        0.0043
     23 C           6.0994   -1.0992    0.0000 C.3     1  UNL1        0.0216
     24 C           5.9766   -5.1857    0.0000 C.3     1  UNL1        0.0909
     25 C           3.8690   -2.0230    0.0000 C.2     1  UNL1        0.1745
     26 C           7.1552   -1.2814    0.0000 C.3     1  UNL1        0.0215
     27 C           5.1755   -0.7165    0.0000 C.2     1  UNL1       -0.0234
     28 C           3.3278   -2.5642    0.0000 C.3     1  UNL1       -0.0498
     29 C           4.2517   -1.0992    0.0000 C.3     1  UNL1        0.1356
     30 C           6.8804   -0.3182    0.0000 C.3     1  UNL1        0.1271
     31 C           5.9172   -0.0434    0.0000 C.2     1  UNL1       -0.0299
     32 C           6.3971    0.0116    0.0000 C.3     1  UNL1       -0.0532
     33 C           7.2102   -0.8015    0.0000 C.3     1  UNL1       -0.0532
     34 C           5.6897    0.9304    0.0000 C.3     1  UNL1       -0.0400
     35 C           6.6259   -5.1733    0.0000 C.2     1  UNL1        0.3046
     36 C           8.0019   -3.2825    0.0000 C.2     1  UNL1        0.3395
     37 C           5.9560   -5.9158    0.0000 C.3     1  UNL1        0.0333
     38 C           7.3287    1.3549    0.0000 C.2     1  UNL1        0.3388
     39 C           8.5755   -4.1015    0.0000 C.ar    1  UNL1        0.0590
     40 C           8.0358    2.0620    0.0000 C.3     1  UNL1        0.1740
     41 C           9.5717   -4.0143    0.0000 C.ar    1  UNL1       -0.0478
     42 C           8.1530   -5.0079    0.0000 C.ar    1  UNL1       -0.0478
     43 C           7.7770    3.0279    0.0000 C.3     1  UNL1        0.0849
     44 C          10.1453   -4.8334    0.0000 C.ar    1  UNL1       -0.0610
     45 C           8.7266   -5.8270    0.0000 C.ar    1  UNL1       -0.0610
     46 C           9.7228   -5.7398    0.0000 C.ar    1  UNL1       -0.0617
     47 C           8.4841    3.7350    0.0000 C.ar    1  UNL1       -0.0242
     48 C           9.4500    3.4762    0.0000 C.ar    1  UNL1       -0.0567
     49 C           8.2253    4.7009    0.0000 C.ar    1  UNL1       -0.0567
     50 C           6.5522    4.2526    0.0000 C.2     1  UNL1        0.2400
     51 C          10.1571    4.1833    0.0000 C.ar    1  UNL1       -0.0614
     52 C           8.9324    5.4080    0.0000 C.ar    1  UNL1       -0.0614
     53 C           5.5863    4.5114    0.0000 C.2     1  UNL1        0.0071
     54 C           9.8983    5.1492    0.0000 C.ar    1  UNL1       -0.0617
     55 C           4.8792    3.8043    0.0000 C.3     1  UNL1       -0.0351
     56 C           5.3275    5.4774    0.0000 C.2     1  UNL1       -0.0793
     57 C           4.3616    5.7362    0.0000 C.3     1  UNL1       -0.0461
     58 H           5.9608   -3.6549    0.0000 H       1  UNL1        0.0388
     59 H           3.9897   -5.6758    0.0000 H       1  UNL1        0.0638
     60 H           6.6773   -2.7222    0.0000 H       1  UNL1        0.0768
     61 H           2.9201   -3.9409    0.0000 H       1  UNL1        0.0604
     62 H           2.9243   -4.5717    0.0000 H       1  UNL1        0.0317
     63 H           3.4078   -5.2069    0.0000 H       1  UNL1        0.0317
     64 H           6.3585   -5.6742    0.0000 H       1  UNL1        0.0601
     65 H           6.4645   -4.8032    0.0000 H       1  UNL1        0.0601
     66 H           7.5297   -1.7755    0.0000 H       1  UNL1        0.0334
     67 H           7.7099   -1.0043    0.0000 H       1  UNL1        0.0334
     68 H           3.5650   -1.9914    0.0000 H       1  UNL1        0.0240
     69 H           2.7550   -2.3270    0.0000 H       1  UNL1        0.0240
     70 H           3.0905   -3.1370    0.0000 H       1  UNL1        0.0240
     71 H           4.3726   -0.4911    0.0000 H       1  UNL1        0.0721
     72 H           7.4806   -0.4738    0.0000 H       1  UNL1        0.0783
     73 H           7.3707   -1.4004    0.0000 H       1  UNL1        0.0239
     74 H           7.8091   -0.6411    0.0000 H       1  UNL1        0.0239
     75 H           7.0498   -0.2026    0.0000 H       1  UNL1        0.0239
     76 H           6.9959   -0.1488    0.0000 H       1  UNL1        0.0239
     77 H           6.5575    0.6105    0.0000 H       1  UNL1        0.0239
     78 H           5.7982    0.1721    0.0000 H       1  UNL1        0.0239
     79 H           7.7921   -1.4861    0.0000 H       1  UNL1        0.2104
     80 H           2.0000   -3.5466    0.0000 H       1  UNL1        0.2098
     81 H           6.2935    1.0715    0.0000 H       1  UNL1        0.0276
     82 H           5.5487    1.5342    0.0000 H       1  UNL1        0.0276
     83 H           5.0860    0.7894    0.0000 H       1  UNL1        0.0276
     84 H           3.7050    0.2068    0.0000 H       1  UNL1        0.2108
     85 H           5.4957   -5.5004    0.0000 H       1  UNL1        0.0342
     86 H           5.5406   -6.3761    0.0000 H       1  UNL1        0.0342
     87 H           6.4163   -6.3311    0.0000 H       1  UNL1        0.0342
     88 H           8.4742    2.5004    0.0000 H       1  UNL1        0.0733
     89 H           9.8337   -3.4524    0.0000 H       1  UNL1        0.0626
     90 H           7.5353   -5.0620    0.0000 H       1  UNL1        0.0626
     91 H           7.6165    3.6268    0.0000 H       1  UNL1        0.0580
     92 H          10.7630   -4.7793    0.0000 H       1  UNL1        0.0618
     93 H           8.4646   -6.3889    0.0000 H       1  UNL1        0.0618
     94 H           9.1622    1.2043    0.0000 H       1  UNL1        0.2106
     95 H          10.0784   -6.2476    0.0000 H       1  UNL1        0.0618
     96 H           6.3726    2.8483    0.0000 H       1  UNL1        0.1497
     97 H           9.6105    2.8773    0.0000 H       1  UNL1        0.0621
     98 H           7.6264    4.8614    0.0000 H       1  UNL1        0.0621
     99 H          10.7560    4.0228    0.0000 H       1  UNL1        0.0618
    100 H           8.7719    6.0069    0.0000 H       1  UNL1        0.0618
    101 H          10.3367    5.5876    0.0000 H       1  UNL1        0.0618
    102 H           4.4408    4.2427    0.0000 H       1  UNL1        0.0279
    103 H           4.4408    3.3659    0.0000 H       1  UNL1        0.0279
    104 H           5.3176    3.3659    0.0000 H       1  UNL1        0.0279
    105 H           5.7659    5.9158    0.0000 H       1  UNL1        0.0573
    106 H           4.5220    6.3351    0.0000 H       1  UNL1        0.0272
    107 H           3.7627    5.8967    0.0000 H       1  UNL1        0.0272
    108 H           4.2011    5.1373    0.0000 H       1  UNL1        0.0272
@<TRIPOS>BOND
     1     1    18    1
     2     1    24    1
     3    16     2    1
     4     2    35    1
     5    19     3    1
     6     3    36    1
     7    20     4    1
     8     4    79    1
     9    21     5    1
    10     5    80    1
    11     6    25    2
    12    29     7    1
    13     7    84    1
    14    30     8    1
    15     8    38    1
    16     9    35    2
    17    10    36    2
    18    11    38    2
    19    40    12    1
    20    12    94    1
    21    13    50    2
    22    43    14    1
    23    14    50   am
    24    14    96    1
    25    15    16    1
    26    15    17    1
    27    15    19    1
    28    15    58    1
    29    16    18    1
    30    16    24    1
    31    17    21    1
    32    17    25    1
    33    17    28    1
    34    18    22    1
    35    18    59    1
    36    19    20    1
    37    19    60    1
    38    20    23    1
    39    20    26    1
    40    21    22    1
    41    21    61    1
    42    22    62    1
    43    22    63    1
    44    23    27    1
    45    23    32    1
    46    23    33    1
    47    24    64    1
    48    24    65    1
    49    25    29    1
    50    26    30    1
    51    26    66    1
    52    26    67    1
    53    27    29    1
    54    27    31    2
    55    28    68    1
    56    28    69    1
    57    28    70    1
    58    29    71    1
    59    30    31    1
    60    30    72    1
    61    31    34    1
    62    32    76    1
    63    32    77    1
    64    32    78    1
    65    33    73    1
    66    33    74    1
    67    33    75    1
    68    34    81    1
    69    34    82    1
    70    34    83    1
    71    35    37    1
    72    36    39    1
    73    37    85    1
    74    37    86    1
    75    37    87    1
    76    38    40    1
    77    39    41   ar
    78    39    42   ar
    79    40    43    1
    80    40    88    1
    81    41    44   ar
    82    41    89    1
    83    42    45   ar
    84    42    90    1
    85    43    47    1
    86    43    91    1
    87    44    46   ar
    88    44    92    1
    89    45    46   ar
    90    45    93    1
    91    46    95    1
    92    47    48   ar
    93    47    49   ar
    94    48    51   ar
    95    48    97    1
    96    49    52   ar
    97    49    98    1
    98    50    53    1
    99    51    54   ar
   100    51    99    1
   101    52    54   ar
   102    52   100    1
   103    53    55    1
   104    53    56    2
   105    54   101    1
   106    55   102    1
   107    55   103    1
   108    55   104    1
   109    56    57    1
   110    56   105    1
   111    57   106    1
   112    57   107    1
   113    57   108    1
