@<TRIPOS>MOLECULE
IMPHY014589
 40 41 0 0 0
SMALL
GASTEIGER

@<TRIPOS>ATOM
      1 O           6.0812   -1.6497    0.0000 O.3     1  UNL1       -0.4566
      2 O           3.2842    0.3287    0.0000 O.3     1  UNL1       -0.3910
      3 O           7.6648   -0.8450    0.0000 O.2     1  UNL1       -0.2505
      4 O           2.5369   -2.8450    0.0000 O.3     1  UNL1       -0.3907
      5 O           2.5369    3.1550    0.0000 O.2     1  UNL1       -0.2960
      6 C           5.1350   -0.3450    0.0000 C.3     1  UNL1        0.0387
      7 C           6.0812   -0.0403    0.0000 C.3     1  UNL1        0.0625
      8 C           5.1350   -1.3450    0.0000 C.3     1  UNL1        0.1275
      9 C           4.2690    0.1550    0.0000 C.3     1  UNL1        0.0665
     10 C           6.6648   -0.8450    0.0000 C.2     1  UNL1        0.3110
     11 C           4.2690    1.1550    0.0000 C.3     1  UNL1        0.0016
     12 C           4.2690   -1.8450    0.0000 C.2     1  UNL1       -0.0422
     13 C           6.3919    0.9103    0.0000 C.3     1  UNL1       -0.0518
     14 C           3.4030   -1.3450    0.0000 C.2     1  UNL1       -0.0447
     15 C           3.4030    1.6550    0.0000 C.2     1  UNL1       -0.0097
     16 C           3.4030   -0.3450    0.0000 C.3     1  UNL1       -0.0260
     17 C           2.5369    0.1550    0.0000 C.3     1  UNL1       -0.0304
     18 C           2.5369    1.1550    0.0000 C.2     1  UNL1       -0.0774
     19 C           2.5369   -1.8450    0.0000 C.3     1  UNL1        0.0654
     20 C           3.4030    2.6550    0.0000 C.2     1  UNL1        0.1460
     21 H           5.2250    0.5002    0.0000 H       1  UNL1        0.0373
     22 H           5.6438    0.3991    0.0000 H       1  UNL1        0.0415
     23 H           5.2250   -2.1902    0.0000 H       1  UNL1        0.0783
     24 H           4.0569   -0.4276    0.0000 H       1  UNL1        0.0601
     25 H           4.8796    1.0473    0.0000 H       1  UNL1        0.0339
     26 H           4.4810    1.7376    0.0000 H       1  UNL1        0.0339
     27 H           4.2690   -2.4650    0.0000 H       1  UNL1        0.0609
     28 H           6.9812    0.7176    0.0000 H       1  UNL1        0.0238
     29 H           6.5845    1.4996    0.0000 H       1  UNL1        0.0238
     30 H           5.8026    1.1029    0.0000 H       1  UNL1        0.0238
     31 H           4.0135   -0.4527    0.0000 H       1  UNL1        0.0314
     32 H           3.6150    0.2376    0.0000 H       1  UNL1        0.0314
     33 H           3.3919    0.9393    0.0000 H       1  UNL1        0.2098
     34 H           1.9264    0.2627    0.0000 H       1  UNL1        0.0311
     35 H           2.3249   -0.4276    0.0000 H       1  UNL1        0.0311
     36 H           2.0000    1.4650    0.0000 H       1  UNL1        0.0576
     37 H           2.3249   -1.2624    0.0000 H       1  UNL1        0.0604
     38 H           1.9264   -1.9527    0.0000 H       1  UNL1        0.0604
     39 H           3.9399    2.9650    0.0000 H       1  UNL1        0.1078
     40 H           2.0000   -3.1550    0.0000 H       1  UNL1        0.2098
@<TRIPOS>BOND
     1     1     8    1
     2     1    10    1
     3     9     2    1
     4     2    33    1
     5     3    10    2
     6     4    19    1
     7     4    40    1
     8     5    20    2
     9     6     7    1
    10     6     8    1
    11     6     9    1
    12     6    21    1
    13     7    10    1
    14     7    13    1
    15     7    22    1
    16     8    12    1
    17     8    23    1
    18     9    11    1
    19     9    24    1
    20    11    15    1
    21    11    25    1
    22    11    26    1
    23    12    14    2
    24    12    27    1
    25    13    28    1
    26    13    29    1
    27    13    30    1
    28    14    16    1
    29    14    19    1
    30    15    18    2
    31    15    20    1
    32    16    17    1
    33    16    31    1
    34    16    32    1
    35    17    18    1
    36    17    34    1
    37    17    35    1
    38    18    36    1
    39    19    37    1
    40    19    38    1
    41    20    39    1
