@<TRIPOS>MOLECULE
IMPHY004084
 173 183 0 0 0
SMALL
GASTEIGER

@<TRIPOS>ATOM
      1 O          17.8164    4.4453    0.0000 O.3     1  UNL1       -0.3448
      2 O          16.0440    5.3401    0.0000 O.3     1  UNL1       -0.3480
      3 O          14.6906    2.3914    0.0000 O.2     1  UNL1       -0.2968
      4 O          16.3933   -3.7988    0.0000 O.3     1  UNL1       -0.3454
      5 O          14.6613   -3.7988    0.0000 O.3     1  UNL1       -0.3405
      6 O          16.3933   -5.7988    0.0000 O.3     1  UNL1       -0.3841
      7 O          14.6613   -6.7988    0.0000 O.3     1  UNL1       -0.3864
      8 O          12.9292   -5.7988    0.0000 O.3     1  UNL1       -0.3401
      9 O          12.9292   -2.7988    0.0000 O.3     1  UNL1       -0.3924
     10 O          12.0632   -4.2988    0.0000 O.3     1  UNL1       -0.3405
     11 O          11.1972   -6.7988    0.0000 O.3     1  UNL1       -0.3841
     12 O           9.4651   -5.7988    0.0000 O.3     1  UNL1       -0.3864
     13 O           9.4651   -3.7988    0.0000 O.3     1  UNL1       -0.3401
     14 O          10.3312   -2.2988    0.0000 O.3     1  UNL1       -0.3924
     15 O           8.5991   -5.2988    0.0000 O.3     1  UNL1       -0.3405
     16 O           7.7331   -2.7988    0.0000 O.3     1  UNL1       -0.3378
     17 O           6.0010   -3.7988    0.0000 O.3     1  UNL1       -0.3400
     18 O           6.0010   -5.7988    0.0000 O.3     1  UNL1       -0.3865
     19 O           6.0010   -2.7988    0.0000 O.3     1  UNL1       -0.3461
     20 O           5.1350   -5.2988    0.0000 O.3     1  UNL1       -0.3431
     21 O           6.8671   -7.2988    0.0000 O.3     1  UNL1       -0.3924
     22 O           7.7331   -0.7987    0.0000 O.3     1  UNL1       -0.3841
     23 O           4.2690   -2.7988    0.0000 O.3     1  UNL1       -0.3841
     24 O           2.5369   -3.7988    0.0000 O.3     1  UNL1       -0.3864
     25 O           6.0010    0.2013    0.0000 O.3     1  UNL1       -0.3864
     26 O           2.5369   -5.7988    0.0000 O.3     1  UNL1       -0.3866
     27 O           4.2690   -0.7987    0.0000 O.3     1  UNL1       -0.3869
     28 C          17.2905    1.9015    0.0000 C.3     1  UNL1       -0.0231
     29 C          16.4226    2.3981    0.0000 C.3     1  UNL1        0.0349
     30 C          17.2944    0.9015    0.0000 C.3     1  UNL1       -0.0335
     31 C          16.6281    3.3707    0.0000 C.3     1  UNL1        0.0052
     32 C          16.4303    0.3981    0.0000 C.3     1  UNL1       -0.0256
     33 C          16.4183   -0.6434    0.0000 C.3     1  UNL1       -0.0256
     34 C          17.6164    3.4776    0.0000 C.3     1  UNL1        0.0664
     35 C          18.0250    2.5714    0.0000 C.3     1  UNL1       -0.0222
     36 C          16.2258    4.2733    0.0000 C.3     1  UNL1        0.0164
     37 C          17.3183   -1.1677    0.0000 C.3     1  UNL1       -0.0330
     38 C          15.5624    0.8948    0.0000 C.3     1  UNL1        0.0100
     39 C          18.2064    0.3981    0.0000 C.3     1  UNL1       -0.0494
     40 C          15.5585    1.8948    0.0000 C.2     1  UNL1        0.1401
     41 C          16.9587    4.9361    0.0000 C.3     1  UNL1        0.1732
     42 C          18.2184   -0.6434    0.0000 C.3     1  UNL1       -0.0494
     43 C          15.5547    2.8948    0.0000 C.3     1  UNL1       -0.0522
     44 C          15.4684   -1.1677    0.0000 C.3     1  UNL1       -0.0448
     45 C          17.3309   -2.2526    0.0000 C.3     1  UNL1       -0.0232
     46 C          15.5542   -0.1401    0.0000 C.3     1  UNL1       -0.0590
     47 C          15.4558   -2.2526    0.0000 C.3     1  UNL1       -0.0260
     48 C          16.3933   -2.7988    0.0000 C.3     1  UNL1        0.0621
     49 C          15.2474    4.4800    0.0000 C.3     1  UNL1       -0.0572
     50 C          17.7660    5.5263    0.0000 C.3     1  UNL1        0.0020
     51 C          17.6585    6.5205    0.0000 C.3     1  UNL1       -0.0435
     52 C          16.7437    6.9245    0.0000 C.3     1  UNL1       -0.0201
     53 C          15.9365    6.3343    0.0000 C.3     1  UNL1        0.0535
     54 C          16.6362    7.9188    0.0000 C.3     1  UNL1       -0.0603
     55 C          15.5273   -4.2988    0.0000 C.3     1  UNL1        0.1882
     56 C          15.5273   -5.2988    0.0000 C.3     1  UNL1        0.1341
     57 C          14.6613   -5.7988    0.0000 C.3     1  UNL1        0.1144
     58 C          13.7953   -4.2988    0.0000 C.3     1  UNL1        0.1134
     59 C          13.7953   -5.2988    0.0000 C.3     1  UNL1        0.1184
     60 C          12.9292   -3.7988    0.0000 C.3     1  UNL1        0.0730
     61 C          12.0632   -5.2988    0.0000 C.3     1  UNL1        0.1884
     62 C          11.1972   -5.7988    0.0000 C.3     1  UNL1        0.1341
     63 C          10.3312   -5.2988    0.0000 C.3     1  UNL1        0.1144
     64 C          11.1972   -3.7988    0.0000 C.3     1  UNL1        0.1134
     65 C          10.3312   -4.2988    0.0000 C.3     1  UNL1        0.1184
     66 C          11.1972   -2.7988    0.0000 C.3     1  UNL1        0.0730
     67 C           8.5991   -4.2988    0.0000 C.3     1  UNL1        0.1888
     68 C           7.7331   -3.7988    0.0000 C.3     1  UNL1        0.1410
     69 C           6.8671   -4.2988    0.0000 C.3     1  UNL1        0.1209
     70 C           7.7331   -5.7988    0.0000 C.3     1  UNL1        0.1130
     71 C           6.8671   -5.2988    0.0000 C.3     1  UNL1        0.1123
     72 C           7.7331   -6.7988    0.0000 C.3     1  UNL1        0.0730
     73 C           6.8671   -2.2988    0.0000 C.3     1  UNL1        0.1881
     74 C           5.1350   -4.2988    0.0000 C.3     1  UNL1        0.1883
     75 C           6.8671   -1.2988    0.0000 C.3     1  UNL1        0.1341
     76 C           4.2690   -3.7988    0.0000 C.3     1  UNL1        0.1341
     77 C           6.0010   -0.7987    0.0000 C.3     1  UNL1        0.1137
     78 C           3.4030   -4.2988    0.0000 C.3     1  UNL1        0.1140
     79 C           4.2690   -5.7988    0.0000 C.3     1  UNL1        0.0873
     80 C           3.4030   -5.2988    0.0000 C.3     1  UNL1        0.1095
     81 C           5.1350   -1.2988    0.0000 C.3     1  UNL1        0.1069
     82 C           5.1350   -2.2988    0.0000 C.3     1  UNL1        0.0792
     83 C           4.2690   -6.7988    0.0000 C.3     1  UNL1       -0.0361
     84 H          18.0688    1.5598    0.0000 H       1  UNL1        0.0314
     85 H          18.0256    1.3350    0.0000 H       1  UNL1        0.0307
     86 H          15.7828    3.2812    0.0000 H       1  UNL1        0.0339
     87 H          17.1648   -0.0297    0.0000 H       1  UNL1        0.0313
     88 H          18.4613    3.5708    0.0000 H       1  UNL1        0.0600
     89 H          18.3924    2.0720    0.0000 H       1  UNL1        0.0293
     90 H          18.5603    2.8842    0.0000 H       1  UNL1        0.0293
     91 H          16.0643    4.8719    0.0000 H       1  UNL1        0.0354
     92 H          18.0577   -1.5870    0.0000 H       1  UNL1        0.0307
     93 H          14.9514    1.0001    0.0000 H       1  UNL1        0.0345
     94 H          15.3526    0.3114    0.0000 H       1  UNL1        0.0345
     95 H          18.8184    0.2991    0.0000 H       1  UNL1        0.0268
     96 H          18.4086    0.9842    0.0000 H       1  UNL1        0.0268
     97 H          18.4342   -1.2247    0.0000 H       1  UNL1        0.0268
     98 H          18.8280   -0.5303    0.0000 H       1  UNL1        0.0268
     99 H          15.8626    3.4329    0.0000 H       1  UNL1        0.0239
    100 H          15.0165    3.2027    0.0000 H       1  UNL1        0.0239
    101 H          15.2467    2.3567    0.0000 H       1  UNL1        0.0239
    102 H          15.2661   -0.5816    0.0000 H       1  UNL1        0.0271
    103 H          14.8563   -1.2667    0.0000 H       1  UNL1        0.0271
    104 H          17.5467   -2.8339    0.0000 H       1  UNL1        0.0293
    105 H          17.9405   -2.1395    0.0000 H       1  UNL1        0.0293
    106 H          15.8662    0.3957    0.0000 H       1  UNL1        0.0235
    107 H          15.0184    0.1720    0.0000 H       1  UNL1        0.0235
    108 H          15.2421   -0.6758    0.0000 H       1  UNL1        0.0235
    109 H          14.8462   -2.1395    0.0000 H       1  UNL1        0.0290
    110 H          15.2400   -2.8339    0.0000 H       1  UNL1        0.0290
    111 H          16.9309   -3.1077    0.0000 H       1  UNL1        0.0597
    112 H          15.3755    5.0866    0.0000 H       1  UNL1        0.0234
    113 H          14.6407    4.6082    0.0000 H       1  UNL1        0.0234
    114 H          15.1192    3.8734    0.0000 H       1  UNL1        0.0234
    115 H          18.0394    4.9699    0.0000 H       1  UNL1        0.0317
    116 H          18.3615    5.6990    0.0000 H       1  UNL1        0.0317
    117 H          18.2771    6.4791    0.0000 H       1  UNL1        0.0270
    118 H          17.8067    7.1226    0.0000 H       1  UNL1        0.0270
    119 H          17.2442    7.2905    0.0000 H       1  UNL1        0.0320
    120 H          15.6630    6.8908    0.0000 H       1  UNL1        0.0563
    121 H          15.3410    6.1617    0.0000 H       1  UNL1        0.0563
    122 H          17.2526    7.9854    0.0000 H       1  UNL1        0.0233
    123 H          16.5696    8.5352    0.0000 H       1  UNL1        0.0233
    124 H          16.0198    7.8521    0.0000 H       1  UNL1        0.0233
    125 H          15.5273   -3.6788    0.0000 H       1  UNL1        0.0937
    126 H          15.5273   -5.9188    0.0000 H       1  UNL1        0.0671
    127 H          14.1244   -6.1088    0.0000 H       1  UNL1        0.0648
    128 H          13.7953   -3.6788    0.0000 H       1  UNL1        0.0647
    129 H          13.2583   -4.9887    0.0000 H       1  UNL1        0.0651
    130 H          16.9303   -5.4887    0.0000 H       1  UNL1        0.2101
    131 H          12.3187   -3.6911    0.0000 H       1  UNL1        0.0584
    132 H          12.7172   -4.3814    0.0000 H       1  UNL1        0.0584
    133 H          15.1982   -7.1088    0.0000 H       1  UNL1        0.2100
    134 H          12.0632   -5.9188    0.0000 H       1  UNL1        0.0938
    135 H          12.3923   -2.4888    0.0000 H       1  UNL1        0.2095
    136 H          10.6603   -6.1088    0.0000 H       1  UNL1        0.0671
    137 H           9.7942   -4.9887    0.0000 H       1  UNL1        0.0648
    138 H          11.7341   -3.4888    0.0000 H       1  UNL1        0.0647
    139 H          10.3312   -3.6788    0.0000 H       1  UNL1        0.0651
    140 H          11.7341   -7.1088    0.0000 H       1  UNL1        0.2101
    141 H          11.8078   -2.9064    0.0000 H       1  UNL1        0.0584
    142 H          11.4092   -2.2161    0.0000 H       1  UNL1        0.0584
    143 H           9.4651   -6.4188    0.0000 H       1  UNL1        0.2100
    144 H           8.5991   -3.6788    0.0000 H       1  UNL1        0.0938
    145 H           7.1962   -3.4888    0.0000 H       1  UNL1        0.0675
    146 H          10.3312   -1.6788    0.0000 H       1  UNL1        0.2095
    147 H           6.3301   -4.6088    0.0000 H       1  UNL1        0.0651
    148 H           8.2700   -6.1088    0.0000 H       1  UNL1        0.0647
    149 H           7.8148   -5.6088    0.0000 H       1  UNL1        0.0647
    150 H           7.9451   -7.3814    0.0000 H       1  UNL1        0.0584
    151 H           8.3437   -6.6911    0.0000 H       1  UNL1        0.0584
    152 H           6.8671   -2.9188    0.0000 H       1  UNL1        0.0937
    153 H           5.1350   -3.6788    0.0000 H       1  UNL1        0.0938
    154 H           6.0010   -6.4188    0.0000 H       1  UNL1        0.2100
    155 H           6.8671   -0.6787    0.0000 H       1  UNL1        0.0671
    156 H           3.7320   -3.4888    0.0000 H       1  UNL1        0.0671
    157 H           2.8660   -4.6088    0.0000 H       1  UNL1        0.0648
    158 H           5.4641   -0.4887    0.0000 H       1  UNL1        0.0647
    159 H           4.8059   -6.1088    0.0000 H       1  UNL1        0.0621
    160 H           3.4030   -5.9188    0.0000 H       1  UNL1        0.0646
    161 H           4.5981   -1.6087    0.0000 H       1  UNL1        0.0643
    162 H           4.5244   -2.1911    0.0000 H       1  UNL1        0.0587
    163 H           4.9230   -2.8814    0.0000 H       1  UNL1        0.0587
    164 H           6.8671   -7.9188    0.0000 H       1  UNL1        0.2095
    165 H           7.7331   -0.1787    0.0000 H       1  UNL1        0.2101
    166 H           3.6490   -6.7988    0.0000 H       1  UNL1        0.0255
    167 H           4.2690   -7.4188    0.0000 H       1  UNL1        0.0255
    168 H           4.8890   -6.7988    0.0000 H       1  UNL1        0.0255
    169 H           3.7320   -2.4888    0.0000 H       1  UNL1        0.2101
    170 H           2.0000   -4.1088    0.0000 H       1  UNL1        0.2100
    171 H           5.4641    0.5113    0.0000 H       1  UNL1        0.2100
    172 H           2.5369   -6.4188    0.0000 H       1  UNL1        0.2100
    173 H           4.2690   -0.1787    0.0000 H       1  UNL1        0.2100
@<TRIPOS>BOND
     1     1    34    1
     2    41     1    1
     3     2    41    1
     4     2    53    1
     5     3    40    2
     6    48     4    1
     7    55     4    1
     8     5    55    1
     9     5    58    1
    10    56     6    1
    11     6   130    1
    12    57     7    1
    13     7   133    1
    14    59     8    1
    15    61     8    1
    16     9    60    1
    17     9   135    1
    18    10    61    1
    19    10    64    1
    20    62    11    1
    21    11   140    1
    22    63    12    1
    23    12   143    1
    24    65    13    1
    25    67    13    1
    26    14    66    1
    27    14   146    1
    28    15    67    1
    29    15    70    1
    30    68    16    1
    31    73    16    1
    32    69    17    1
    33    74    17    1
    34    71    18    1
    35    18   154    1
    36    19    73    1
    37    19    82    1
    38    20    74    1
    39    20    79    1
    40    21    72    1
    41    21   164    1
    42    75    22    1
    43    22   165    1
    44    76    23    1
    45    23   169    1
    46    78    24    1
    47    24   170    1
    48    77    25    1
    49    25   171    1
    50    80    26    1
    51    26   172    1
    52    81    27    1
    53    27   173    1
    54    28    29    1
    55    28    30    1
    56    28    35    1
    57    28    84    1
    58    29    31    1
    59    29    40    1
    60    29    43    1
    61    30    32    1
    62    30    39    1
    63    30    85    1
    64    31    34    1
    65    31    36    1
    66    31    86    1
    67    32    33    1
    68    32    38    1
    69    32    87    1
    70    33    37    1
    71    33    44    1
    72    33    46    1
    73    34    35    1
    74    34    88    1
    75    35    89    1
    76    35    90    1
    77    36    41    1
    78    36    49    1
    79    36    91    1
    80    37    42    1
    81    37    45    1
    82    37    92    1
    83    38    40    1
    84    38    93    1
    85    38    94    1
    86    39    42    1
    87    39    95    1
    88    39    96    1
    89    41    50    1
    90    42    97    1
    91    42    98    1
    92    43    99    1
    93    43   100    1
    94    43   101    1
    95    44    47    1
    96    44   102    1
    97    44   103    1
    98    45    48    1
    99    45   104    1
   100    45   105    1
   101    46   106    1
   102    46   107    1
   103    46   108    1
   104    47    48    1
   105    47   109    1
   106    47   110    1
   107    48   111    1
   108    49   112    1
   109    49   113    1
   110    49   114    1
   111    50    51    1
   112    50   115    1
   113    50   116    1
   114    51    52    1
   115    51   117    1
   116    51   118    1
   117    52    53    1
   118    52    54    1
   119    52   119    1
   120    53   120    1
   121    53   121    1
   122    54   122    1
   123    54   123    1
   124    54   124    1
   125    55    56    1
   126    55   125    1
   127    56    57    1
   128    56   126    1
   129    57    59    1
   130    57   127    1
   131    58    59    1
   132    58    60    1
   133    58   128    1
   134    59   129    1
   135    60   131    1
   136    60   132    1
   137    61    62    1
   138    61   134    1
   139    62    63    1
   140    62   136    1
   141    63    65    1
   142    63   137    1
   143    64    65    1
   144    64    66    1
   145    64   138    1
   146    65   139    1
   147    66   141    1
   148    66   142    1
   149    67    68    1
   150    67   144    1
   151    68    69    1
   152    68   145    1
   153    69    71    1
   154    69   147    1
   155    70    71    1
   156    70    72    1
   157    70   148    1
   158    71   149    1
   159    72   150    1
   160    72   151    1
   161    73    75    1
   162    73   152    1
   163    74    76    1
   164    74   153    1
   165    75    77    1
   166    75   155    1
   167    76    78    1
   168    76   156    1
   169    77    81    1
   170    77   158    1
   171    78    80    1
   172    78   157    1
   173    79    80    1
   174    79    83    1
   175    79   159    1
   176    80   160    1
   177    81    82    1
   178    81   161    1
   179    82   162    1
   180    82   163    1
   181    83   166    1
   182    83   167    1
   183    83   168    1
