@<TRIPOS>MOLECULE
IMPHY004716
 71 74 0 0 0
SMALL
GASTEIGER

@<TRIPOS>ATOM
      1 O           6.0290    1.8388    0.0000 O.3     1  UNL1       -0.4808
      2 O           7.7991    3.8976    0.0000 O.3     1  UNL1       -0.3875
      3 O           4.2690    4.8734    0.0000 O.3     1  UNL1       -0.5063
      4 O           2.5369    1.8734    0.0000 O.3     1  UNL1       -0.5062
      5 O           2.9835   -0.6587    0.0000 O.3     1  UNL1       -0.5055
      6 O           6.2386    0.5262    0.0000 O.3     1  UNL1       -0.5060
      7 O           5.6371   -2.8853    0.0000 O.3     1  UNL1       -0.4939
      8 O           2.6826   -2.3644    0.0000 O.2     1  UNL1       -0.2915
      9 O          10.3991    2.3393    0.0000 O.3     1  UNL1       -0.5033
     10 O          10.3914    0.3393    0.0000 O.3     1  UNL1       -0.5033
     11 C           6.9350    3.3943    0.0000 C.3     1  UNL1        0.1004
     12 C           6.9350    2.3526    0.0000 C.3     1  UNL1        0.1513
     13 C           6.0290    3.9081    0.0000 C.3     1  UNL1        0.0092
     14 C           5.1350    3.3734    0.0000 C.ar    1  UNL1        0.0387
     15 C           5.1350    2.3734    0.0000 C.ar    1  UNL1        0.1352
     16 C           4.2690    1.8734    0.0000 C.ar    1  UNL1        0.0407
     17 C           7.7991    1.8493    0.0000 C.ar    1  UNL1       -0.0012
     18 C           4.2690    0.8735    0.0000 C.3     1  UNL1        0.0115
     19 C           4.2690    3.8734    0.0000 C.ar    1  UNL1        0.1271
     20 C           4.6110   -0.0662    0.0000 C.ar    1  UNL1        0.0411
     21 C           3.4030    2.3734    0.0000 C.ar    1  UNL1        0.1273
     22 C           3.4030    3.3734    0.0000 C.ar    1  UNL1        0.0221
     23 C           3.9682   -0.8323    0.0000 C.ar    1  UNL1        0.1378
     24 C           4.3102   -1.7720    0.0000 C.ar    1  UNL1        0.1013
     25 C           8.6671    2.3460    0.0000 C.ar    1  UNL1       -0.0098
     26 C           5.5958   -0.2399    0.0000 C.ar    1  UNL1        0.1302
     27 C           7.7953    0.8493    0.0000 C.ar    1  UNL1       -0.0513
     28 C           4.0095   -3.4777    0.0000 C.3     1  UNL1        0.0193
     29 C           5.9378   -1.1796    0.0000 C.ar    1  UNL1        0.0337
     30 C           5.2950   -1.9456    0.0000 C.ar    1  UNL1        0.1405
     31 C           3.6674   -2.5380    0.0000 C.2     1  UNL1        0.1730
     32 C           3.3667   -4.2438    0.0000 C.3     1  UNL1       -0.0463
     33 C           9.5312    1.8426    0.0000 C.ar    1  UNL1        0.1586
     34 C           8.6594    0.3460    0.0000 C.ar    1  UNL1       -0.0162
     35 C           9.5273    0.8426    0.0000 C.ar    1  UNL1        0.1582
     36 C           4.9943   -3.6514    0.0000 C.3     1  UNL1       -0.0554
     37 C           6.9226   -1.3532    0.0000 C.3     1  UNL1       -0.0327
     38 C           3.7087   -5.1834    0.0000 C.3     1  UNL1       -0.0646
     39 C           6.6219   -3.0590    0.0000 C.3     1  UNL1        0.0788
     40 H           7.4726    3.0853    0.0000 H       1  UNL1        0.0637
     41 H           7.4726    2.6616    0.0000 H       1  UNL1        0.0811
     42 H           6.4226    4.3871    0.0000 H       1  UNL1        0.0342
     43 H           5.6244    4.3779    0.0000 H       1  UNL1        0.0342
     44 H           3.6997    1.1190    0.0000 H       1  UNL1        0.0366
     45 H           4.8796    0.9811    0.0000 H       1  UNL1        0.0366
     46 H           2.8660    3.6834    0.0000 H       1  UNL1        0.0691
     47 H           7.7967    4.5176    0.0000 H       1  UNL1        0.2100
     48 H           8.6694    2.9660    0.0000 H       1  UNL1        0.0659
     49 H           7.2571    0.5414    0.0000 H       1  UNL1        0.0623
     50 H           4.4080   -3.0028    0.0000 H       1  UNL1        0.0378
     51 H           2.9682   -3.7688    0.0000 H       1  UNL1        0.0269
     52 H           2.8298   -4.5538    0.0000 H       1  UNL1        0.0269
     53 H           8.6570   -0.2740    0.0000 H       1  UNL1        0.0655
     54 H           3.7320    5.1834    0.0000 H       1  UNL1        0.2921
     55 H           4.8866   -4.2619    0.0000 H       1  UNL1        0.0237
     56 H           5.6049   -3.7590    0.0000 H       1  UNL1        0.0237
     57 H           5.1019   -3.0408    0.0000 H       1  UNL1        0.0237
     58 H           2.0000    2.1834    0.0000 H       1  UNL1        0.2921
     59 H           6.8150   -1.9638    0.0000 H       1  UNL1        0.0280
     60 H           7.5332   -1.4609    0.0000 H       1  UNL1        0.0280
     61 H           7.0303   -0.7426    0.0000 H       1  UNL1        0.0280
     62 H           3.1261   -5.3955    0.0000 H       1  UNL1        0.0230
     63 H           3.9208   -5.7661    0.0000 H       1  UNL1        0.0230
     64 H           4.2913   -4.9714    0.0000 H       1  UNL1        0.0230
     65 H           2.7714   -0.0761    0.0000 H       1  UNL1        0.2922
     66 H           6.8492    0.4185    0.0000 H       1  UNL1        0.2922
     67 H          10.9348    2.0272    0.0000 H       1  UNL1        0.2923
     68 H           6.5142   -3.6696    0.0000 H       1  UNL1        0.0660
     69 H           7.2325   -3.1666    0.0000 H       1  UNL1        0.0660
     70 H           6.7295   -2.4484    0.0000 H       1  UNL1        0.0660
     71 H          10.3890   -0.2807    0.0000 H       1  UNL1        0.2923
@<TRIPOS>BOND
     1     1    12    1
     2     1    15    1
     3    11     2    1
     4     2    47    1
     5     3    19    1
     6     3    54    1
     7     4    21    1
     8     4    58    1
     9     5    23    1
    10     5    65    1
    11     6    26    1
    12     6    66    1
    13     7    30    1
    14     7    39    1
    15     8    31    2
    16     9    33    1
    17     9    67    1
    18    10    35    1
    19    10    71    1
    20    11    12    1
    21    11    13    1
    22    11    40    1
    23    12    17    1
    24    12    41    1
    25    13    14    1
    26    13    42    1
    27    13    43    1
    28    14    15   ar
    29    14    19   ar
    30    15    16   ar
    31    16    18    1
    32    16    21   ar
    33    17    25   ar
    34    17    27   ar
    35    18    20    1
    36    18    44    1
    37    18    45    1
    38    19    22   ar
    39    20    23   ar
    40    20    26   ar
    41    21    22   ar
    42    22    46    1
    43    23    24   ar
    44    24    30   ar
    45    24    31    1
    46    25    33   ar
    47    25    48    1
    48    26    29   ar
    49    27    34   ar
    50    27    49    1
    51    28    31    1
    52    28    32    1
    53    28    36    1
    54    28    50    1
    55    29    30   ar
    56    29    37    1
    57    32    38    1
    58    32    51    1
    59    32    52    1
    60    33    35   ar
    61    34    35   ar
    62    34    53    1
    63    36    55    1
    64    36    56    1
    65    36    57    1
    66    37    59    1
    67    37    60    1
    68    37    61    1
    69    38    62    1
    70    38    63    1
    71    38    64    1
    72    39    68    1
    73    39    69    1
    74    39    70    1
