@<TRIPOS>MOLECULE
IMPHY005555
 48 50 0 0 0
SMALL
GASTEIGER

@<TRIPOS>ATOM
      1 O           6.3660    0.5000    0.0000 O.3     1  UNL1       -0.3605
      2 O           5.5000   -1.7320    0.0000 O.2     1  UNL1       -0.4957
      3 O           2.5000    0.0000    0.0000 O.2     1  UNL1       -0.2875
      4 O          10.7763   -0.1953    0.0000 O.3     1  UNL1       -0.4526
      5 O          10.7763   -1.8047    0.0000 O.3     1  UNL1       -0.4526
      6 C           5.5000    0.0000    0.0000 C.3     1  UNL1        0.1656
      7 C           6.3660   -0.5000    0.0000 C.2     1  UNL1       -0.0295
      8 C           5.0000    0.8660    0.0000 C.2     1  UNL1       -0.0340
      9 C           5.0000   -0.8660    0.0000 C.2     1  UNL1        0.1407
     10 C           4.0000    0.8660    0.0000 C.2     1  UNL1        0.0026
     11 C           4.0000   -0.8660    0.0000 C.2     1  UNL1        0.0264
     12 C           7.2320    0.0000    0.0000 C.2     1  UNL1       -0.0521
     13 C           3.5000    0.0000    0.0000 C.2     1  UNL1        0.1855
     14 C           6.3660   -1.5000    0.0000 C.3     1  UNL1       -0.0400
     15 C           3.5000    1.7320    0.0000 C.3     1  UNL1       -0.0063
     16 C           8.0981   -0.5000    0.0000 C.ar    1  UNL1       -0.0213
     17 C           8.9641    0.0000    0.0000 C.ar    1  UNL1       -0.0090
     18 C           6.3660    1.5000    0.0000 C.3     1  UNL1        0.0386
     19 C           8.0981   -1.5000    0.0000 C.ar    1  UNL1       -0.0509
     20 C           9.8301   -0.5000    0.0000 C.ar    1  UNL1        0.1668
     21 C           9.8301   -1.5000    0.0000 C.ar    1  UNL1        0.1663
     22 C           2.5000    1.7320    0.0000 C.2     1  UNL1       -0.0867
     23 C           8.9641   -2.0000    0.0000 C.ar    1  UNL1       -0.0156
     24 C           5.0000   -2.5981    0.0000 C.3     1  UNL1        0.0785
     25 C          11.3600   -1.0000    0.0000 C.3     1  UNL1        0.2332
     26 C           2.0000    2.5981    0.0000 C.2     1  UNL1       -0.1023
     27 H           5.3100    1.4030    0.0000 H       1  UNL1        0.0612
     28 H           3.6900   -1.4030    0.0000 H       1  UNL1        0.0690
     29 H           7.2320    0.6200    0.0000 H       1  UNL1        0.0624
     30 H           5.7460   -1.5000    0.0000 H       1  UNL1        0.0276
     31 H           6.3660   -2.1200    0.0000 H       1  UNL1        0.0276
     32 H           6.9860   -1.5000    0.0000 H       1  UNL1        0.0276
     33 H           4.0826    1.9441    0.0000 H       1  UNL1        0.0357
     34 H           3.3923    2.3426    0.0000 H       1  UNL1        0.0357
     35 H           8.9641    0.6200    0.0000 H       1  UNL1        0.0661
     36 H           6.9860    1.5000    0.0000 H       1  UNL1        0.0524
     37 H           6.3660    2.1200    0.0000 H       1  UNL1        0.0524
     38 H           5.7460    1.5000    0.0000 H       1  UNL1        0.0524
     39 H           7.5611   -1.8100    0.0000 H       1  UNL1        0.0625
     40 H           2.1900    1.1951    0.0000 H       1  UNL1        0.0570
     41 H           8.9641   -2.6200    0.0000 H       1  UNL1        0.0655
     42 H           4.4631   -2.2881    0.0000 H       1  UNL1        0.0660
     43 H           4.6900   -3.1350    0.0000 H       1  UNL1        0.0660
     44 H           5.5369   -2.9081    0.0000 H       1  UNL1        0.0660
     45 H          11.8208   -1.4147    0.0000 H       1  UNL1        0.1166
     46 H          11.8208   -0.5853    0.0000 H       1  UNL1        0.1166
     47 H           2.3100    3.1350    0.0000 H       1  UNL1        0.0532
     48 H           1.3800    2.5981    0.0000 H       1  UNL1        0.0532
@<TRIPOS>BOND
     1     1     6    1
     2     1    18    1
     3     2     9    1
     4     2    24    1
     5     3    13    2
     6     4    20    1
     7     4    25    1
     8     5    21    1
     9     5    25    1
    10     6     7    1
    11     6     8    1
    12     6     9    1
    13     7    12    2
    14     7    14    1
    15     8    10    2
    16     8    27    1
    17     9    11    2
    18    10    13    1
    19    10    15    1
    20    11    13    1
    21    11    28    1
    22    12    16    1
    23    12    29    1
    24    14    30    1
    25    14    31    1
    26    14    32    1
    27    15    22    1
    28    15    33    1
    29    15    34    1
    30    16    17   ar
    31    16    19   ar
    32    17    20   ar
    33    17    35    1
    34    18    36    1
    35    18    37    1
    36    18    38    1
    37    19    23   ar
    38    19    39    1
    39    20    21   ar
    40    21    23   ar
    41    22    26    2
    42    22    40    1
    43    23    41    1
    44    24    42    1
    45    24    43    1
    46    24    44    1
    47    25    45    1
    48    25    46    1
    49    26    47    1
    50    26    48    1
