@<TRIPOS>MOLECULE
IMPHY017034
 29 29 0 0 0
SMALL
GASTEIGER

@<TRIPOS>ATOM
      1 O           2.0000   -2.1900    0.0000 O.3     1  UNL1       -0.3907
      2 C           2.8660    1.3100    0.0000 C.3     1  UNL1       -0.0350
      3 C           2.0000    0.8100    0.0000 C.3     1  UNL1       -0.0459
      4 C           2.8660    2.3100    0.0000 C.3     1  UNL1       -0.0436
      5 C           3.7320    0.8100    0.0000 C.3     1  UNL1       -0.0314
      6 C           2.0000   -0.1900    0.0000 C.3     1  UNL1       -0.0293
      7 C           2.8660   -0.6900    0.0000 C.2     1  UNL1       -0.0484
      8 C           3.7320   -0.1900    0.0000 C.2     1  UNL1       -0.0823
      9 C           3.7320    2.8100    0.0000 C.3     1  UNL1       -0.0624
     10 C           2.0000    2.8100    0.0000 C.3     1  UNL1       -0.0624
     11 C           2.8660   -1.6900    0.0000 C.3     1  UNL1        0.0653
     12 H           3.4030    1.6200    0.0000 H       1  UNL1        0.0306
     13 H           1.7880    1.3926    0.0000 H       1  UNL1        0.0271
     14 H           1.3894    0.7023    0.0000 H       1  UNL1        0.0271
     15 H           2.8660    2.9300    0.0000 H       1  UNL1        0.0298
     16 H           4.3426    0.7023    0.0000 H       1  UNL1        0.0310
     17 H           3.9441    1.3926    0.0000 H       1  UNL1        0.0310
     18 H           1.3894   -0.0823    0.0000 H       1  UNL1        0.0311
     19 H           1.7880   -0.7726    0.0000 H       1  UNL1        0.0311
     20 H           4.2690   -0.5000    0.0000 H       1  UNL1        0.0572
     21 H           4.0420    2.2731    0.0000 H       1  UNL1        0.0232
     22 H           4.2690    3.1200    0.0000 H       1  UNL1        0.0232
     23 H           3.4220    3.3469    0.0000 H       1  UNL1        0.0232
     24 H           2.3100    3.3469    0.0000 H       1  UNL1        0.0232
     25 H           1.4631    3.1200    0.0000 H       1  UNL1        0.0232
     26 H           1.6900    2.2731    0.0000 H       1  UNL1        0.0232
     27 H           3.0781   -2.2726    0.0000 H       1  UNL1        0.0604
     28 H           3.4766   -1.5823    0.0000 H       1  UNL1        0.0604
     29 H           2.0000   -2.8100    0.0000 H       1  UNL1        0.2098
@<TRIPOS>BOND
     1     1    11    1
     2     1    29    1
     3     2     3    1
     4     2     4    1
     5     2     5    1
     6     2    12    1
     7     3     6    1
     8     3    13    1
     9     3    14    1
    10     4     9    1
    11     4    10    1
    12     4    15    1
    13     5     8    1
    14     5    16    1
    15     5    17    1
    16     6     7    1
    17     6    18    1
    18     6    19    1
    19     7     8    2
    20     7    11    1
    21     8    20    1
    22     9    21    1
    23     9    22    1
    24     9    23    1
    25    10    24    1
    26    10    25    1
    27    10    26    1
    28    11    27    1
    29    11    28    1
