@<TRIPOS>MOLECULE
IMPHY012591
 26 26 0 0 0
SMALL
GASTEIGER

@<TRIPOS>ATOM
      1 C           3.7320    0.2500    0.0000 C.3     1  UNL1       -0.0425
      2 C           2.8660    0.7500    0.0000 C.3     1  UNL1       -0.0023
      3 C           3.7320   -0.7500    0.0000 C.3     1  UNL1       -0.0462
      4 C           2.8660   -1.2500    0.0000 C.3     1  UNL1       -0.0257
      5 C           2.0000    0.2500    0.0000 C.2     1  UNL1       -0.0806
      6 C           2.0000   -0.7500    0.0000 C.2     1  UNL1       -0.0845
      7 C           2.8660    1.7500    0.0000 C.2     1  UNL1       -0.0729
      8 C           2.8660   -2.2500    0.0000 C.3     1  UNL1       -0.0590
      9 C           3.7320    2.2500    0.0000 C.3     1  UNL1       -0.0435
     10 C           2.0000    2.2500    0.0000 C.2     1  UNL1       -0.0992
     11 H           4.3426    0.1423    0.0000 H       1  UNL1        0.0274
     12 H           3.9441    0.8326    0.0000 H       1  UNL1        0.0274
     13 H           3.4030    1.0600    0.0000 H       1  UNL1        0.0388
     14 H           3.9441   -1.3326    0.0000 H       1  UNL1        0.0271
     15 H           4.3426   -0.6423    0.0000 H       1  UNL1        0.0271
     16 H           3.4030   -1.5600    0.0000 H       1  UNL1        0.0340
     17 H           1.4631    0.5600    0.0000 H       1  UNL1        0.0575
     18 H           1.4631   -1.0600    0.0000 H       1  UNL1        0.0572
     19 H           2.2460   -2.2500    0.0000 H       1  UNL1        0.0235
     20 H           2.8660   -2.8700    0.0000 H       1  UNL1        0.0235
     21 H           3.4860   -2.2500    0.0000 H       1  UNL1        0.0235
     22 H           4.0420    1.7131    0.0000 H       1  UNL1        0.0274
     23 H           4.2690    2.5600    0.0000 H       1  UNL1        0.0274
     24 H           3.4220    2.7869    0.0000 H       1  UNL1        0.0274
     25 H           2.0000    2.8700    0.0000 H       1  UNL1        0.0534
     26 H           1.4631    1.9400    0.0000 H       1  UNL1        0.0534
@<TRIPOS>BOND
     1     1     2    1
     2     1     3    1
     3     1    11    1
     4     1    12    1
     5     2     5    1
     6     2     7    1
     7     2    13    1
     8     3     4    1
     9     3    14    1
    10     3    15    1
    11     4     6    1
    12     4     8    1
    13     4    16    1
    14     5     6    2
    15     5    17    1
    16     6    18    1
    17     7     9    1
    18     7    10    2
    19     8    19    1
    20     8    20    1
    21     8    21    1
    22     9    22    1
    23     9    23    1
    24     9    24    1
    25    10    25    1
    26    10    26    1
