@<TRIPOS>MOLECULE
IMPHY002551
 39 42 0 0 0
SMALL
GASTEIGER

@<TRIPOS>ATOM
      1 C           3.0000    1.3362    0.0000 C.3     1  UNL1       -0.0253
      2 C           4.0000    1.3362    0.0000 C.3     1  UNL1       -0.0315
      3 C           3.5000    2.2027    0.0000 C.3     1  UNL1       -0.0315
      4 C           3.5000   -0.2027    0.0000 C.3     1  UNL1       -0.0228
      5 C           4.3660   -0.7027    0.0000 C.3     1  UNL1       -0.0235
      6 C           2.6910    0.3851    0.0000 C.3     1  UNL1       -0.0409
      7 C           4.3090    0.3851    0.0000 C.3     1  UNL1       -0.0432
      8 C           4.7717    1.0000    0.0000 C.3     1  UNL1       -0.0433
      9 C           2.6340   -0.7027    0.0000 C.3     1  UNL1       -0.0468
     10 C           4.3660   -1.7027    0.0000 C.3     1  UNL1       -0.0380
     11 C           2.0000    1.3362    0.0000 C.3     1  UNL1       -0.0590
     12 C           5.3592   -0.8194    0.0000 C.3     1  UNL1       -0.0588
     13 C           2.6340   -1.7027    0.0000 C.3     1  UNL1       -0.0523
     14 C           3.5000   -2.2027    0.0000 C.3     1  UNL1       -0.0499
     15 C           5.2320   -2.2027    0.0000 C.3     1  UNL1       -0.0619
     16 H           4.5664    1.5883    0.0000 H       1  UNL1        0.0309
     17 H           3.4104    2.8162    0.0000 H       1  UNL1        0.0309
     18 H           2.1246    0.6373    0.0000 H       1  UNL1        0.0276
     19 H           2.3810   -0.1518    0.0000 H       1  UNL1        0.0276
     20 H           4.6190   -0.1518    0.0000 H       1  UNL1        0.0274
     21 H           4.8754    0.6373    0.0000 H       1  UNL1        0.0274
     22 H           5.3407    0.7537    0.0000 H       1  UNL1        0.0274
     23 H           5.1130    1.5176    0.0000 H       1  UNL1        0.0274
     24 H           2.4219   -0.1201    0.0000 H       1  UNL1        0.0271
     25 H           2.0234   -0.8104    0.0000 H       1  UNL1        0.0271
     26 H           4.3660   -2.3227    0.0000 H       1  UNL1        0.0304
     27 H           2.0000    1.9562    0.0000 H       1  UNL1        0.0235
     28 H           1.3800    1.3362    0.0000 H       1  UNL1        0.0235
     29 H           2.0000    0.7162    0.0000 H       1  UNL1        0.0235
     30 H           5.2868   -1.4351    0.0000 H       1  UNL1        0.0235
     31 H           5.9750   -0.8917    0.0000 H       1  UNL1        0.0235
     32 H           5.4315   -0.2036    0.0000 H       1  UNL1        0.0235
     33 H           2.0234   -1.5950    0.0000 H       1  UNL1        0.0266
     34 H           2.4219   -2.2853    0.0000 H       1  UNL1        0.0266
     35 H           3.1015   -2.6776    0.0000 H       1  UNL1        0.0268
     36 H           3.8985   -2.6776    0.0000 H       1  UNL1        0.0268
     37 H           4.9220   -2.7396    0.0000 H       1  UNL1        0.0233
     38 H           5.7690   -2.5127    0.0000 H       1  UNL1        0.0233
     39 H           5.5420   -1.6658    0.0000 H       1  UNL1        0.0233
@<TRIPOS>BOND
     1     1     2    1
     2     1     3    1
     3     1     6    1
     4     1    11    1
     5     2     3    1
     6     2     7    1
     7     2    16    1
     8     3     8    1
     9     3    17    1
    10     4     5    1
    11     4     6    1
    12     4     7    1
    13     4     9    1
    14     5     8    1
    15     5    10    1
    16     5    12    1
    17     6    18    1
    18     6    19    1
    19     7    20    1
    20     7    21    1
    21     8    22    1
    22     8    23    1
    23     9    13    1
    24     9    24    1
    25     9    25    1
    26    10    14    1
    27    10    15    1
    28    10    26    1
    29    11    27    1
    30    11    28    1
    31    11    29    1
    32    12    30    1
    33    12    31    1
    34    12    32    1
    35    13    14    1
    36    13    33    1
    37    13    34    1
    38    14    35    1
    39    14    36    1
    40    15    37    1
    41    15    38    1
    42    15    39    1
