@<TRIPOS>MOLECULE
IMPHY005521
 19 18 0 0 0
SMALL
GASTEIGER

@<TRIPOS>ATOM
      1 O           2.5369    1.0000    0.0000 O.3     1  UNL1       -0.3878
      2 C           4.2690    1.0000    0.0000 C.3     1  UNL1       -0.0235
      3 C           5.1350    0.5000    0.0000 C.3     1  UNL1       -0.0533
      4 C           3.4030    0.5000    0.0000 C.3     1  UNL1        0.0731
      5 C           6.0010    1.0000    0.0000 C.3     1  UNL1       -0.0652
      6 C           3.4030   -0.5000    0.0000 C.2     1  UNL1       -0.0630
      7 C           2.5369   -1.0000    0.0000 C.2     1  UNL1       -0.1002
      8 H           4.6675    1.4750    0.0000 H       1  UNL1        0.0293
      9 H           3.8705    1.4750    0.0000 H       1  UNL1        0.0293
     10 H           4.7365    0.0251    0.0000 H       1  UNL1        0.0264
     11 H           5.5335    0.0251    0.0000 H       1  UNL1        0.0264
     12 H           3.4030    1.1200    0.0000 H       1  UNL1        0.0637
     13 H           6.3110    0.4631    0.0000 H       1  UNL1        0.0230
     14 H           6.5380    1.3100    0.0000 H       1  UNL1        0.0230
     15 H           5.6910    1.5369    0.0000 H       1  UNL1        0.0230
     16 H           3.9399   -0.8100    0.0000 H       1  UNL1        0.0592
     17 H           2.0000    0.6900    0.0000 H       1  UNL1        0.2102
     18 H           2.0000   -0.6900    0.0000 H       1  UNL1        0.0533
     19 H           2.5369   -1.6200    0.0000 H       1  UNL1        0.0533
@<TRIPOS>BOND
     1     1     4    1
     2     1    17    1
     3     2     3    1
     4     2     4    1
     5     2     8    1
     6     2     9    1
     7     3     5    1
     8     3    10    1
     9     3    11    1
    10     4     6    1
    11     4    12    1
    12     5    13    1
    13     5    14    1
    14     5    15    1
    15     6     7    2
    16     6    16    1
    17     7    18    1
    18     7    19    1
