@<TRIPOS>MOLECULE
IMPHY000014
 57 60 0 0 0
SMALL
GASTEIGER

@<TRIPOS>ATOM
      1 O           2.8660    0.7874    0.0000 O.3     1  UNL1       -0.3827
      2 O           3.7320    3.2874    0.0000 O.3     1  UNL1       -0.3827
      3 O           8.9942    0.2633    0.0000 O.3     1  UNL1       -0.4914
      4 O           8.9942    2.3116    0.0000 O.3     1  UNL1       -0.4914
      5 O           3.8611   -2.8796    0.0000 O.3     1  UNL1       -0.4526
      6 O           5.2549   -3.6844    0.0000 O.3     1  UNL1       -0.4526
      7 C           4.5981    0.7874    0.0000 C.3     1  UNL1       -0.0016
      8 C           4.5981    1.7874    0.0000 C.3     1  UNL1       -0.0078
      9 C           5.4641    0.2874    0.0000 C.3     1  UNL1        0.0150
     10 C           5.4641    2.2874    0.0000 C.3     1  UNL1       -0.0220
     11 C           6.3301    0.7874    0.0000 C.ar    1  UNL1       -0.0328
     12 C           6.3301    1.7874    0.0000 C.ar    1  UNL1       -0.0396
     13 C           3.7320    0.2874    0.0000 C.3     1  UNL1        0.0513
     14 C           3.7320    2.2874    0.0000 C.3     1  UNL1        0.0508
     15 C           5.4641   -0.7126    0.0000 C.ar    1  UNL1       -0.0359
     16 C           7.2241    0.2528    0.0000 C.ar    1  UNL1       -0.0123
     17 C           7.2241    2.3221    0.0000 C.ar    1  UNL1       -0.0128
     18 C           4.5981   -1.2126    0.0000 C.ar    1  UNL1       -0.0124
     19 C           6.3301   -1.2126    0.0000 C.ar    1  UNL1       -0.0543
     20 C           8.1301    0.7666    0.0000 C.ar    1  UNL1        0.1618
     21 C           8.1301    1.8082    0.0000 C.ar    1  UNL1        0.1618
     22 C           4.5981   -2.2126    0.0000 C.ar    1  UNL1        0.1665
     23 C           6.3301   -2.2126    0.0000 C.ar    1  UNL1       -0.0159
     24 C           5.4641   -2.7126    0.0000 C.ar    1  UNL1        0.1662
     25 C           2.0000    0.2874    0.0000 C.3     1  UNL1        0.0365
     26 C           2.8660    3.7874    0.0000 C.3     1  UNL1        0.0365
     27 C           4.2662   -3.7874    0.0000 C.3     1  UNL1        0.2332
     28 C           9.8622    0.7599    0.0000 C.3     1  UNL1        0.0790
     29 C           8.9904    3.3116    0.0000 C.3     1  UNL1        0.0790
     30 H           4.5981    0.1674    0.0000 H       1  UNL1        0.0335
     31 H           4.5981    2.4074    0.0000 H       1  UNL1        0.0330
     32 H           6.0010   -0.0226    0.0000 H       1  UNL1        0.0401
     33 H           5.8626    2.7624    0.0000 H       1  UNL1        0.0317
     34 H           5.0656    2.7624    0.0000 H       1  UNL1        0.0317
     35 H           3.3335   -0.1875    0.0000 H       1  UNL1        0.0563
     36 H           4.1306   -0.1875    0.0000 H       1  UNL1        0.0563
     37 H           3.1215    2.3951    0.0000 H       1  UNL1        0.0562
     38 H           3.5200    1.7048    0.0000 H       1  UNL1        0.0562
     39 H           7.2169   -0.3672    0.0000 H       1  UNL1        0.0658
     40 H           7.2169    2.9421    0.0000 H       1  UNL1        0.0658
     41 H           4.0611   -0.9026    0.0000 H       1  UNL1        0.0658
     42 H           6.8671   -0.9026    0.0000 H       1  UNL1        0.0622
     43 H           6.8671   -2.5226    0.0000 H       1  UNL1        0.0655
     44 H           1.6900    0.8244    0.0000 H       1  UNL1        0.0523
     45 H           1.4631   -0.0226    0.0000 H       1  UNL1        0.0523
     46 H           2.3100   -0.2495    0.0000 H       1  UNL1        0.0523
     47 H           3.1760    4.3244    0.0000 H       1  UNL1        0.0523
     48 H           2.3291    4.0974    0.0000 H       1  UNL1        0.0523
     49 H           2.5560    3.2505    0.0000 H       1  UNL1        0.0523
     50 H           3.6766   -3.9792    0.0000 H       1  UNL1        0.1166
     51 H           4.3949   -4.3939    0.0000 H       1  UNL1        0.1166
     52 H          10.1701    0.2218    0.0000 H       1  UNL1        0.0660
     53 H          10.4003    1.0679    0.0000 H       1  UNL1        0.0660
     54 H           9.5542    1.2981    0.0000 H       1  UNL1        0.0660
     55 H           9.6104    3.3140    0.0000 H       1  UNL1        0.0660
     56 H           8.9880    3.9316    0.0000 H       1  UNL1        0.0660
     57 H           8.3704    3.3092    0.0000 H       1  UNL1        0.0660
@<TRIPOS>BOND
     1     1    13    1
     2     1    25    1
     3     2    14    1
     4     2    26    1
     5     3    20    1
     6     3    28    1
     7     4    21    1
     8     4    29    1
     9     5    22    1
    10     5    27    1
    11     6    24    1
    12     6    27    1
    13     7     8    1
    14     7     9    1
    15     7    13    1
    16     7    30    1
    17     8    10    1
    18     8    14    1
    19     8    31    1
    20     9    11    1
    21     9    15    1
    22     9    32    1
    23    10    12    1
    24    10    33    1
    25    10    34    1
    26    11    12   ar
    27    11    16   ar
    28    12    17   ar
    29    13    35    1
    30    13    36    1
    31    14    37    1
    32    14    38    1
    33    15    18   ar
    34    15    19   ar
    35    16    20   ar
    36    16    39    1
    37    17    21   ar
    38    17    40    1
    39    18    22   ar
    40    18    41    1
    41    19    23   ar
    42    19    42    1
    43    20    21   ar
    44    22    24   ar
    45    23    24   ar
    46    23    43    1
    47    25    44    1
    48    25    45    1
    49    25    46    1
    50    26    47    1
    51    26    48    1
    52    26    49    1
    53    27    50    1
    54    27    51    1
    55    28    52    1
    56    28    53    1
    57    28    54    1
    58    29    55    1
    59    29    56    1
    60    29    57    1
