@<TRIPOS>MOLECULE
IMPHY010958
 27 27 0 0 0
SMALL
GASTEIGER

@<TRIPOS>ATOM
      1 O           2.0000   -1.2500    0.0000 O.2     1  UNL1       -0.2924
      2 C           3.7320    0.7500    0.0000 C.3     1  UNL1       -0.0283
      3 C           3.7320    1.7500    0.0000 C.3     1  UNL1       -0.0432
      4 C           2.8660    0.2500    0.0000 C.3     1  UNL1        0.0135
      5 C           4.5981    0.2500    0.0000 C.3     1  UNL1       -0.0306
      6 C           2.8660   -0.7500    0.0000 C.2     1  UNL1        0.1589
      7 C           4.5981   -0.7500    0.0000 C.2     1  UNL1       -0.0775
      8 C           4.5981    2.2500    0.0000 C.3     1  UNL1       -0.0624
      9 C           2.8660    2.2500    0.0000 C.3     1  UNL1       -0.0624
     10 C           3.7320   -1.2500    0.0000 C.2     1  UNL1       -0.0120
     11 C           3.7320   -2.2500    0.0000 C.3     1  UNL1       -0.0367
     12 H           4.2690    1.0600    0.0000 H       1  UNL1        0.0310
     13 H           3.7320    2.3700    0.0000 H       1  UNL1        0.0298
     14 H           2.6540    0.8326    0.0000 H       1  UNL1        0.0348
     15 H           2.2554    0.1423    0.0000 H       1  UNL1        0.0348
     16 H           5.2087    0.1423    0.0000 H       1  UNL1        0.0310
     17 H           4.8101    0.8326    0.0000 H       1  UNL1        0.0310
     18 H           5.1350   -1.0600    0.0000 H       1  UNL1        0.0576
     19 H           4.9081    1.7131    0.0000 H       1  UNL1        0.0232
     20 H           5.1350    2.5600    0.0000 H       1  UNL1        0.0232
     21 H           4.2881    2.7869    0.0000 H       1  UNL1        0.0232
     22 H           3.1760    2.7869    0.0000 H       1  UNL1        0.0232
     23 H           2.3291    2.5600    0.0000 H       1  UNL1        0.0232
     24 H           2.5560    1.7131    0.0000 H       1  UNL1        0.0232
     25 H           3.1120   -2.2500    0.0000 H       1  UNL1        0.0278
     26 H           3.7320   -2.8700    0.0000 H       1  UNL1        0.0278
     27 H           4.3520   -2.2500    0.0000 H       1  UNL1        0.0278
@<TRIPOS>BOND
     1     1     6    2
     2     2     3    1
     3     2     4    1
     4     2     5    1
     5     2    12    1
     6     3     8    1
     7     3     9    1
     8     3    13    1
     9     4     6    1
    10     4    14    1
    11     4    15    1
    12     5     7    1
    13     5    16    1
    14     5    17    1
    15     6    10    1
    16     7    10    2
    17     7    18    1
    18     8    19    1
    19     8    20    1
    20     8    21    1
    21     9    22    1
    22     9    23    1
    23     9    24    1
    24    10    11    1
    25    11    25    1
    26    11    26    1
    27    11    27    1
