@<TRIPOS>MOLECULE
IMPHY014794
 82 86 0 0 0
SMALL
GASTEIGER

@<TRIPOS>ATOM
      1 O           2.5381   -3.4065    0.0000 O.3     1  UNL1       -0.3912
      2 O          12.0724    4.1656    0.0000 O.3     1  UNL1       -0.3851
      3 C           6.0682   -1.3824    0.0000 C.3     1  UNL1       -0.0194
      4 C           5.2022   -1.8824    0.0000 C.3     1  UNL1       -0.0193
      5 C           5.2020   -0.8819    0.0000 C.3     1  UNL1       -0.0401
      6 C           6.9343   -1.8824    0.0000 C.3     1  UNL1       -0.0289
      7 C           5.2022   -2.8824    0.0000 C.3     1  UNL1       -0.0273
      8 C           7.8443   -1.3755    0.0000 C.3     1  UNL1       -0.0231
      9 C           6.0522   -0.3409    0.0000 C.3     1  UNL1       -0.0460
     10 C           7.8523   -0.3339    0.0000 C.3     1  UNL1       -0.0233
     11 C           4.3083   -1.3477    0.0000 C.3     1  UNL1       -0.0442
     12 C           6.9343   -2.8824    0.0000 C.3     1  UNL1       -0.0489
     13 C           6.0682   -3.3824    0.0000 C.3     1  UNL1       -0.0488
     14 C           6.9502    0.1869    0.0000 C.3     1  UNL1       -0.0463
     15 C           4.3083   -3.4170    0.0000 C.3     1  UNL1       -0.0056
     16 C           8.8403   -0.0241    0.0000 C.3     1  UNL1       -0.0322
     17 C           8.8274   -1.7005    0.0000 C.3     1  UNL1       -0.0466
     18 C           3.4022   -1.8616    0.0000 C.3     1  UNL1       -0.0258
     19 C           3.4022   -2.9032    0.0000 C.3     1  UNL1        0.0606
     20 C           9.4418   -0.8670    0.0000 C.3     1  UNL1       -0.0489
     21 C           7.8366   -2.3755    0.0000 C.3     1  UNL1       -0.0588
     22 C           7.8600    0.6660    0.0000 C.3     1  UNL1       -0.0588
     23 C           9.1583    0.9240    0.0000 C.3     1  UNL1       -0.0371
     24 C           3.8183   -4.2888    0.0000 C.3     1  UNL1       -0.0572
     25 C           4.8183   -4.2772    0.0000 C.3     1  UNL1       -0.0572
     26 C          10.1384    1.1226    0.0000 C.3     1  UNL1       -0.0318
     27 C           8.4962    1.6734    0.0000 C.3     1  UNL1       -0.0619
     28 C          10.4564    2.0708    0.0000 C.2     1  UNL1       -0.0850
     29 C          11.4364    2.2694    0.0000 C.2     1  UNL1       -0.0573
     30 C          11.7544    3.2175    0.0000 C.3     1  UNL1        0.0786
     31 C          12.7025    2.8995    0.0000 C.3     1  UNL1       -0.0327
     32 C          10.8063    3.5355    0.0000 C.3     1  UNL1       -0.0327
     33 H           5.4141   -0.2993    0.0000 H       1  UNL1        0.0276
     34 H           4.5914   -0.7743    0.0000 H       1  UNL1        0.0276
     35 H           7.6671   -2.3130    0.0000 H       1  UNL1        0.0312
     36 H           5.2088   -3.7324    0.0000 H       1  UNL1        0.0312
     37 H           5.8342    0.2395    0.0000 H       1  UNL1        0.0271
     38 H           5.4431   -0.4564    0.0000 H       1  UNL1        0.0271
     39 H           4.7129   -0.8779    0.0000 H       1  UNL1        0.0272
     40 H           3.9147   -0.8687    0.0000 H       1  UNL1        0.0272
     41 H           7.1463   -3.4650    0.0000 H       1  UNL1        0.0268
     42 H           7.5449   -2.7747    0.0000 H       1  UNL1        0.0268
     43 H           5.6697   -3.8573    0.0000 H       1  UNL1        0.0268
     44 H           6.4668   -3.8573    0.0000 H       1  UNL1        0.0268
     45 H           7.3475    0.6629    0.0000 H       1  UNL1        0.0271
     46 H           6.5493    0.6598    0.0000 H       1  UNL1        0.0271
     47 H           9.6810    0.1013    0.0000 H       1  UNL1        0.0309
     48 H           8.5720   -2.2655    0.0000 H       1  UNL1        0.0271
     49 H           9.3624   -2.0139    0.0000 H       1  UNL1        0.0271
     50 H           3.1932   -1.2779    0.0000 H       1  UNL1        0.0290
     51 H           2.7914   -1.9676    0.0000 H       1  UNL1        0.0290
     52 H           3.4058   -3.5232    0.0000 H       1  UNL1        0.0599
     53 H           9.8994   -1.2853    0.0000 H       1  UNL1        0.0268
     54 H           9.9058   -0.4558    0.0000 H       1  UNL1        0.0268
     55 H           7.2166   -2.3707    0.0000 H       1  UNL1        0.0235
     56 H           7.8318   -2.9955    0.0000 H       1  UNL1        0.0235
     57 H           8.4566   -2.3803    0.0000 H       1  UNL1        0.0235
     58 H           8.4800    0.6613    0.0000 H       1  UNL1        0.0235
     59 H           7.8648    1.2860    0.0000 H       1  UNL1        0.0235
     60 H           7.2400    0.6708    0.0000 H       1  UNL1        0.0235
     61 H           9.3555    1.5118    0.0000 H       1  UNL1        0.0304
     62 H           3.2778   -3.9850    0.0000 H       1  UNL1        0.0236
     63 H           3.5146   -4.8293    0.0000 H       1  UNL1        0.0236
     64 H           4.3588   -4.5926    0.0000 H       1  UNL1        0.0236
     65 H           4.2850   -4.5934    0.0000 H       1  UNL1        0.0236
     66 H           5.1344   -4.8105    0.0000 H       1  UNL1        0.0236
     67 H           5.3516   -3.9610    0.0000 H       1  UNL1        0.0236
     68 H           2.0000   -3.0986    0.0000 H       1  UNL1        0.2098
     69 H          10.1542    0.5028    0.0000 H       1  UNL1        0.0310
     70 H          10.7515    1.0306    0.0000 H       1  UNL1        0.0310
     71 H           8.9609    2.0839    0.0000 H       1  UNL1        0.0233
     72 H           8.0857    2.1380    0.0000 H       1  UNL1        0.0233
     73 H           8.0316    1.2629    0.0000 H       1  UNL1        0.0233
     74 H          10.0459    2.5354    0.0000 H       1  UNL1        0.0570
     75 H          11.8469    1.8048    0.0000 H       1  UNL1        0.0597
     76 H          12.5054    2.3117    0.0000 H       1  UNL1        0.0260
     77 H          13.2903    2.7024    0.0000 H       1  UNL1        0.0260
     78 H          12.8997    3.4874    0.0000 H       1  UNL1        0.0260
     79 H          11.0035    4.1233    0.0000 H       1  UNL1        0.0260
     80 H          10.2185    3.7326    0.0000 H       1  UNL1        0.0260
     81 H          10.6092    2.9477    0.0000 H       1  UNL1        0.0260
     82 H          12.6800    4.2888    0.0000 H       1  UNL1        0.2106
@<TRIPOS>BOND
     1     1    19    1
     2     1    68    1
     3     2    30    1
     4     2    82    1
     5     3     4    1
     6     3     5    1
     7     3     6    1
     8     3     9    1
     9     4     5    1
    10     4     7    1
    11     4    11    1
    12     5    33    1
    13     5    34    1
    14     6     8    1
    15     6    12    1
    16     6    35    1
    17     7    13    1
    18     7    15    1
    19     7    36    1
    20     8    10    1
    21     8    17    1
    22     8    21    1
    23     9    14    1
    24     9    37    1
    25     9    38    1
    26    10    14    1
    27    10    16    1
    28    10    22    1
    29    11    18    1
    30    11    39    1
    31    11    40    1
    32    12    13    1
    33    12    41    1
    34    12    42    1
    35    13    43    1
    36    13    44    1
    37    14    45    1
    38    14    46    1
    39    15    19    1
    40    15    24    1
    41    15    25    1
    42    16    20    1
    43    16    23    1
    44    16    47    1
    45    17    20    1
    46    17    48    1
    47    17    49    1
    48    18    19    1
    49    18    50    1
    50    18    51    1
    51    19    52    1
    52    20    53    1
    53    20    54    1
    54    21    55    1
    55    21    56    1
    56    21    57    1
    57    22    58    1
    58    22    59    1
    59    22    60    1
    60    23    26    1
    61    23    27    1
    62    23    61    1
    63    24    62    1
    64    24    63    1
    65    24    64    1
    66    25    65    1
    67    25    66    1
    68    25    67    1
    69    26    28    1
    70    26    69    1
    71    26    70    1
    72    27    71    1
    73    27    72    1
    74    27    73    1
    75    28    29    2
    76    28    74    1
    77    29    30    1
    78    29    75    1
    79    30    31    1
    80    30    32    1
    81    31    76    1
    82    31    77    1
    83    31    78    1
    84    32    79    1
    85    32    80    1
    86    32    81    1
