@<TRIPOS>MOLECULE
IMPHY009412
 82 85 0 0 0
SMALL
GASTEIGER

@<TRIPOS>ATOM
      1 O           2.7122   -3.2415    0.0000 O.3     1  UNL1       -0.4806
      2 O           4.4441   -3.2214    0.0000 O.2     1  UNL1       -0.2510
      3 C           6.1694    1.8130    0.0000 C.3     1  UNL1       -0.0231
      4 C           7.0354    1.3130    0.0000 C.3     1  UNL1       -0.0230
      5 C           5.3033    1.3130    0.0000 C.3     1  UNL1       -0.0294
      6 C           7.9454    1.8199    0.0000 C.3     1  UNL1       -0.0292
      7 C           5.3033    0.3130    0.0000 C.3     1  UNL1       -0.0251
      8 C           7.9534    2.8615    0.0000 C.3     1  UNL1       -0.0287
      9 C           7.0354    0.3130    0.0000 C.3     1  UNL1       -0.0463
     10 C           6.1533    2.8545    0.0000 C.3     1  UNL1       -0.0463
     11 C           6.1694   -0.1870    0.0000 C.3     1  UNL1       -0.0466
     12 C           4.4094   -0.2216    0.0000 C.3     1  UNL1       -0.0260
     13 C           7.0513    3.3823    0.0000 C.3     1  UNL1       -0.0468
     14 C           4.4094    1.8477    0.0000 C.3     1  UNL1       -0.0484
     15 C           8.8722    1.2558    0.0000 C.3     1  UNL1       -0.0440
     16 C           3.5033    0.2922    0.0000 C.3     1  UNL1       -0.0110
     17 C           5.3033    2.3130    0.0000 C.3     1  UNL1       -0.0588
     18 C           7.9014    0.8130    0.0000 C.3     1  UNL1       -0.0588
     19 C           8.8888    3.4112    0.0000 C.3     1  UNL1       -0.0469
     20 C           9.8201    1.7837    0.0000 C.3     1  UNL1       -0.0346
     21 C           3.5033    1.3338    0.0000 C.3     1  UNL1       -0.0436
     22 C           5.3033   -0.6870    0.0000 C.3     1  UNL1       -0.0590
     23 C           9.8285    2.8687    0.0000 C.3     1  UNL1       -0.0474
     24 C           7.9611    3.8614    0.0000 C.3     1  UNL1       -0.0593
     25 C           4.4210   -1.2216    0.0000 C.3     1  UNL1       -0.0389
     26 C           3.0067   -0.5757    0.0000 C.3     1  UNL1       -0.0558
     27 C          10.8200    1.7722    0.0000 C.3     1  UNL1       -0.0598
     28 C          10.3101    0.9120    0.0000 C.3     1  UNL1       -0.0598
     29 C           2.5033    0.2883    0.0000 C.2     1  UNL1       -0.0849
     30 C           3.5608   -1.7316    0.0000 C.3     1  UNL1        0.0451
     31 C           2.0000    1.1524    0.0000 C.2     1  UNL1       -0.1021
     32 C           3.5723   -2.7315    0.0000 C.2     1  UNL1        0.3047
     33 H           6.0395    0.8880    0.0000 H       1  UNL1        0.0312
     34 H           8.6880    2.2335    0.0000 H       1  UNL1        0.0312
     35 H           7.2474   -0.2696    0.0000 H       1  UNL1        0.0271
     36 H           7.6460    0.4207    0.0000 H       1  UNL1        0.0271
     37 H           5.9353    3.4349    0.0000 H       1  UNL1        0.0271
     38 H           5.5442    2.7390    0.0000 H       1  UNL1        0.0271
     39 H           5.7708   -0.6619    0.0000 H       1  UNL1        0.0271
     40 H           6.5679   -0.6619    0.0000 H       1  UNL1        0.0271
     41 H           3.8755   -0.5368    0.0000 H       1  UNL1        0.0314
     42 H           7.4486    3.8582    0.0000 H       1  UNL1        0.0271
     43 H           6.6504    3.8552    0.0000 H       1  UNL1        0.0271
     44 H           4.8140    2.3175    0.0000 H       1  UNL1        0.0269
     45 H           4.0158    2.3267    0.0000 H       1  UNL1        0.0269
     46 H           8.4640    0.7891    0.0000 H       1  UNL1        0.0273
     47 H           9.2622    0.7737    0.0000 H       1  UNL1        0.0273
     48 H           5.6133    2.8500    0.0000 H       1  UNL1        0.0235
     49 H           4.7664    2.6230    0.0000 H       1  UNL1        0.0235
     50 H           4.9933    1.7761    0.0000 H       1  UNL1        0.0235
     51 H           7.5914    0.2761    0.0000 H       1  UNL1        0.0235
     52 H           8.4384    0.5030    0.0000 H       1  UNL1        0.0235
     53 H           8.2114    1.3500    0.0000 H       1  UNL1        0.0235
     54 H           9.2861    3.8872    0.0000 H       1  UNL1        0.0271
     55 H           8.4879    3.8841    0.0000 H       1  UNL1        0.0271
     56 H           3.2943    1.9175    0.0000 H       1  UNL1        0.0274
     57 H           2.8925    1.2277    0.0000 H       1  UNL1        0.0274
     58 H           4.6833   -0.6870    0.0000 H       1  UNL1        0.0235
     59 H           5.3033   -1.3070    0.0000 H       1  UNL1        0.0235
     60 H           5.9233   -0.6870    0.0000 H       1  UNL1        0.0235
     61 H          10.4385    2.7579    0.0000 H       1  UNL1        0.0271
     62 H          10.0420    3.4508    0.0000 H       1  UNL1        0.0271
     63 H           8.5811    3.8566    0.0000 H       1  UNL1        0.0235
     64 H           7.9659    4.4814    0.0000 H       1  UNL1        0.0235
     65 H           7.3412    3.8662    0.0000 H       1  UNL1        0.0235
     66 H           4.6397   -1.8017    0.0000 H       1  UNL1        0.0273
     67 H           5.0302   -1.1069    0.0000 H       1  UNL1        0.0273
     68 H           2.4685   -0.2678    0.0000 H       1  UNL1        0.0238
     69 H           2.6987   -1.1139    0.0000 H       1  UNL1        0.0238
     70 H           3.5448   -0.8837    0.0000 H       1  UNL1        0.0238
     71 H          10.8129    1.1522    0.0000 H       1  UNL1        0.0235
     72 H          11.4400    1.7650    0.0000 H       1  UNL1        0.0235
     73 H          10.8272    2.3921    0.0000 H       1  UNL1        0.0235
     74 H           9.7696    0.6082    0.0000 H       1  UNL1        0.0235
     75 H          10.6138    0.3715    0.0000 H       1  UNL1        0.0235
     76 H          10.8505    1.2158    0.0000 H       1  UNL1        0.0235
     77 H           2.1954   -0.2498    0.0000 H       1  UNL1        0.0572
     78 H           3.3420   -1.1514    0.0000 H       1  UNL1        0.0378
     79 H           2.9515   -1.8463    0.0000 H       1  UNL1        0.0378
     80 H           2.3079    1.6906    0.0000 H       1  UNL1        0.0532
     81 H           1.3800    1.1500    0.0000 H       1  UNL1        0.0532
     82 H           2.7193   -3.8614    0.0000 H       1  UNL1        0.2951
@<TRIPOS>BOND
     1     1    32    1
     2     1    82    1
     3     2    32    2
     4     3     4    1
     5     3     5    1
     6     3    10    1
     7     3    17    1
     8     4     6    1
     9     4     9    1
    10     4    18    1
    11     5     7    1
    12     5    14    1
    13     5    33    1
    14     6     8    1
    15     6    15    1
    16     6    34    1
    17     7    11    1
    18     7    12    1
    19     7    22    1
    20     8    13    1
    21     8    19    1
    22     8    24    1
    23     9    11    1
    24     9    35    1
    25     9    36    1
    26    10    13    1
    27    10    37    1
    28    10    38    1
    29    11    39    1
    30    11    40    1
    31    12    16    1
    32    12    25    1
    33    12    41    1
    34    13    42    1
    35    13    43    1
    36    14    21    1
    37    14    44    1
    38    14    45    1
    39    15    20    1
    40    15    46    1
    41    15    47    1
    42    16    21    1
    43    16    26    1
    44    16    29    1
    45    17    48    1
    46    17    49    1
    47    17    50    1
    48    18    51    1
    49    18    52    1
    50    18    53    1
    51    19    23    1
    52    19    54    1
    53    19    55    1
    54    20    23    1
    55    20    27    1
    56    20    28    1
    57    21    56    1
    58    21    57    1
    59    22    58    1
    60    22    59    1
    61    22    60    1
    62    23    61    1
    63    23    62    1
    64    24    63    1
    65    24    64    1
    66    24    65    1
    67    25    30    1
    68    25    66    1
    69    25    67    1
    70    26    68    1
    71    26    69    1
    72    26    70    1
    73    27    71    1
    74    27    72    1
    75    27    73    1
    76    28    74    1
    77    28    75    1
    78    28    76    1
    79    29    31    2
    80    29    77    1
    81    30    32    1
    82    30    78    1
    83    30    79    1
    84    31    80    1
    85    31    81    1
