@<TRIPOS>MOLECULE
IMPHY002093
 31 33 0 0 0
SMALL
GASTEIGER

@<TRIPOS>ATOM
      1 O           6.4144    2.0273    0.0000 O.3     1  UNL1       -0.5060
      2 O           4.6660    1.9927    0.0000 O.2     1  UNL1       -0.2864
      3 O           2.9176    2.0273    0.0000 O.3     1  UNL1       -0.5060
      4 O           8.1923   -2.0314    0.0000 O.3     1  UNL1       -0.3904
      5 C           4.6660   -1.0073    0.0000 C.3     1  UNL1       -0.0008
      6 C           5.5321   -0.5073    0.0000 C.ar    1  UNL1       -0.0284
      7 C           3.8000   -0.5073    0.0000 C.ar    1  UNL1       -0.0287
      8 C           5.5321    0.4927    0.0000 C.ar    1  UNL1        0.0672
      9 C           3.8000    0.4927    0.0000 C.ar    1  UNL1        0.0672
     10 C           4.6660    0.9927    0.0000 C.2     1  UNL1        0.2007
     11 C           6.4260   -1.0420    0.0000 C.ar    1  UNL1       -0.0520
     12 C           6.4260    1.0274    0.0000 C.ar    1  UNL1        0.1283
     13 C           7.3321   -0.5281    0.0000 C.ar    1  UNL1       -0.0184
     14 C           2.9061   -1.0420    0.0000 C.ar    1  UNL1       -0.0574
     15 C           2.9061    1.0274    0.0000 C.ar    1  UNL1        0.1279
     16 C           7.3321    0.5135    0.0000 C.ar    1  UNL1       -0.0141
     17 C           2.0000   -0.5281    0.0000 C.ar    1  UNL1       -0.0580
     18 C           2.0000    0.5135    0.0000 C.ar    1  UNL1       -0.0194
     19 C           8.1962   -1.0314    0.0000 C.3     1  UNL1        0.0694
     20 H           4.2675   -1.4822    0.0000 H       1  UNL1        0.0362
     21 H           5.0646   -1.4822    0.0000 H       1  UNL1        0.0362
     22 H           6.4188   -1.6619    0.0000 H       1  UNL1        0.0624
     23 H           2.9132   -1.6619    0.0000 H       1  UNL1        0.0621
     24 H           7.8678    0.8256    0.0000 H       1  UNL1        0.0658
     25 H           1.4643   -0.8402    0.0000 H       1  UNL1        0.0619
     26 H           1.4643    0.8256    0.0000 H       1  UNL1        0.0654
     27 H           8.8063   -1.1414    0.0000 H       1  UNL1        0.0607
     28 H           8.4105   -0.4496    0.0000 H       1  UNL1        0.0607
     29 H           6.9478    2.3435    0.0000 H       1  UNL1        0.2922
     30 H           2.3843    2.3435    0.0000 H       1  UNL1        0.2922
     31 H           8.7280   -2.3435    0.0000 H       1  UNL1        0.2098
@<TRIPOS>BOND
     1     1    12    1
     2     1    29    1
     3     2    10    2
     4     3    15    1
     5     3    30    1
     6     4    19    1
     7     4    31    1
     8     5     6    1
     9     5     7    1
    10     5    20    1
    11     5    21    1
    12     6     8   ar
    13     6    11   ar
    14     7     9   ar
    15     7    14   ar
    16     8    10    1
    17     8    12   ar
    18     9    10    1
    19     9    15   ar
    20    11    13   ar
    21    11    22    1
    22    12    16   ar
    23    13    16   ar
    24    13    19    1
    25    14    17   ar
    26    14    23    1
    27    15    18   ar
    28    16    24    1
    29    17    18   ar
    30    17    25    1
    31    18    26    1
    32    19    27    1
    33    19    28    1
