@<TRIPOS>MOLECULE
IMPHY017646
 39 40 0 0 0
SMALL
GASTEIGER

@<TRIPOS>ATOM
      1 O           7.2067    1.7123    0.0000 O.3     1  UNL1       -0.4773
      2 O           5.4747    1.6923    0.0000 O.2     1  UNL1       -0.2455
      3 C           5.4641   -1.3323    0.0000 C.3     1  UNL1       -0.0247
      4 C           5.4641   -0.3323    0.0000 C.3     1  UNL1       -0.0035
      5 C           4.5981   -1.8323    0.0000 C.3     1  UNL1       -0.0465
      6 C           4.5981    0.1677    0.0000 C.3     1  UNL1       -0.0390
      7 C           3.7320   -0.3323    0.0000 C.3     1  UNL1       -0.0198
      8 C           6.3580   -1.8669    0.0000 C.3     1  UNL1       -0.0436
      9 C           3.7320   -1.3323    0.0000 C.3     1  UNL1       -0.0460
     10 C           5.4641   -2.3323    0.0000 C.3     1  UNL1       -0.0590
     11 C           6.3580    0.2024    0.0000 C.2     1  UNL1        0.0361
     12 C           7.2641   -1.3531    0.0000 C.3     1  UNL1       -0.0335
     13 C           7.2641   -0.3115    0.0000 C.2     1  UNL1       -0.0738
     14 C           2.8660    0.1677    0.0000 C.2     1  UNL1       -0.0766
     15 C           6.3465    1.2023    0.0000 C.2     1  UNL1        0.3327
     16 C           2.0000   -0.3323    0.0000 C.3     1  UNL1       -0.0438
     17 C           2.8660    1.1677    0.0000 C.2     1  UNL1       -0.0994
     18 H           5.4593    0.2877    0.0000 H       1  UNL1        0.0356
     19 H           4.1996   -2.3072    0.0000 H       1  UNL1        0.0271
     20 H           4.9966   -2.3072    0.0000 H       1  UNL1        0.0271
     21 H           4.9966    0.6427    0.0000 H       1  UNL1        0.0277
     22 H           4.1996    0.6427    0.0000 H       1  UNL1        0.0277
     23 H           3.7320    0.2877    0.0000 H       1  UNL1        0.0346
     24 H           5.9534   -2.3367    0.0000 H       1  UNL1        0.0274
     25 H           6.7517   -2.3460    0.0000 H       1  UNL1        0.0274
     26 H           3.1215   -1.2246    0.0000 H       1  UNL1        0.0271
     27 H           3.5200   -1.9149    0.0000 H       1  UNL1        0.0271
     28 H           4.8441   -2.3323    0.0000 H       1  UNL1        0.0235
     29 H           5.4641   -2.9523    0.0000 H       1  UNL1        0.0235
     30 H           6.0841   -2.3323    0.0000 H       1  UNL1        0.0235
     31 H           7.4732   -1.9368    0.0000 H       1  UNL1        0.0308
     32 H           7.8750   -1.2470    0.0000 H       1  UNL1        0.0308
     33 H           7.7998    0.0006    0.0000 H       1  UNL1        0.0577
     34 H           1.6900    0.2047    0.0000 H       1  UNL1        0.0274
     35 H           1.4631   -0.6423    0.0000 H       1  UNL1        0.0274
     36 H           2.3100   -0.8692    0.0000 H       1  UNL1        0.0274
     37 H           3.4030    1.4777    0.0000 H       1  UNL1        0.0534
     38 H           2.3291    1.4777    0.0000 H       1  UNL1        0.0534
     39 H           7.1995    2.3323    0.0000 H       1  UNL1        0.2954
@<TRIPOS>BOND
     1     1    15    1
     2     1    39    1
     3     2    15    2
     4     3     4    1
     5     3     5    1
     6     3     8    1
     7     3    10    1
     8     4     6    1
     9     4    11    1
    10     4    18    1
    11     5     9    1
    12     5    19    1
    13     5    20    1
    14     6     7    1
    15     6    21    1
    16     6    22    1
    17     7     9    1
    18     7    14    1
    19     7    23    1
    20     8    12    1
    21     8    24    1
    22     8    25    1
    23     9    26    1
    24     9    27    1
    25    10    28    1
    26    10    29    1
    27    10    30    1
    28    11    13    2
    29    11    15    1
    30    12    13    1
    31    12    31    1
    32    12    32    1
    33    13    33    1
    34    14    16    1
    35    14    17    2
    36    16    34    1
    37    16    35    1
    38    16    36    1
    39    17    37    1
    40    17    38    1
