@<TRIPOS>MOLECULE
IMPHY012555
 38 41 0 0 0
SMALL
GASTEIGER

@<TRIPOS>ATOM
      1 O          10.8084   -0.4453    0.0000 O.3     1  UNL1       -0.4526
      2 O          10.8084   -2.0547    0.0000 O.3     1  UNL1       -0.4526
      3 O           2.8680   -0.7742    0.0000 O.3     1  UNL1       -0.4950
      4 O           6.3981    2.2500    0.0000 O.2     1  UNL1       -0.2871
      5 N           6.3981   -0.7500    0.0000 N.ar    1  UNL1       -0.3426
      6 C           7.2641   -0.2500    0.0000 C.ar    1  UNL1        0.0530
      7 C           5.5320   -0.2500    0.0000 C.ar    1  UNL1        0.0564
      8 C           8.1301   -0.7500    0.0000 C.ar    1  UNL1        0.0023
      9 C           5.5320    0.7500    0.0000 C.ar    1  UNL1        0.0454
     10 C           7.2641    0.7500    0.0000 C.ar    1  UNL1        0.0098
     11 C           6.3981    1.2500    0.0000 C.ar    1  UNL1        0.1900
     12 C           8.9962   -0.2500    0.0000 C.ar    1  UNL1       -0.0070
     13 C           4.6381   -0.7847    0.0000 C.ar    1  UNL1        0.0043
     14 C           6.3981   -1.7500    0.0000 C.3     1  UNL1        0.0124
     15 C           9.8622   -0.7500    0.0000 C.ar    1  UNL1        0.1669
     16 C           8.1301   -1.7500    0.0000 C.ar    1  UNL1       -0.0489
     17 C           4.6381    1.2847    0.0000 C.ar    1  UNL1       -0.0455
     18 C           9.8622   -1.7500    0.0000 C.ar    1  UNL1        0.1663
     19 C           3.7320   -0.2708    0.0000 C.ar    1  UNL1        0.1221
     20 C           8.9962   -2.2500    0.0000 C.ar    1  UNL1       -0.0155
     21 C           3.7320    0.7708    0.0000 C.ar    1  UNL1       -0.0192
     22 C          11.3920   -1.2500    0.0000 C.3     1  UNL1        0.2332
     23 C           2.0000   -0.2775    0.0000 C.3     1  UNL1        0.0788
     24 H           7.8010    1.0600    0.0000 H       1  UNL1        0.0677
     25 H           8.9962    0.3700    0.0000 H       1  UNL1        0.0662
     26 H           4.6453   -1.4046    0.0000 H       1  UNL1        0.0675
     27 H           5.7781   -1.7500    0.0000 H       1  UNL1        0.0456
     28 H           6.3981   -2.3700    0.0000 H       1  UNL1        0.0456
     29 H           7.0181   -1.7500    0.0000 H       1  UNL1        0.0456
     30 H           7.5932   -2.0600    0.0000 H       1  UNL1        0.0625
     31 H           4.6453    1.9046    0.0000 H       1  UNL1        0.0626
     32 H           8.9962   -2.8700    0.0000 H       1  UNL1        0.0655
     33 H           3.1963    1.0829    0.0000 H       1  UNL1        0.0654
     34 H          11.8529   -1.6647    0.0000 H       1  UNL1        0.1166
     35 H          11.8529   -0.8353    0.0000 H       1  UNL1        0.1166
     36 H           2.3079    0.2606    0.0000 H       1  UNL1        0.0660
     37 H           1.4619    0.0304    0.0000 H       1  UNL1        0.0660
     38 H           1.6921   -0.8156    0.0000 H       1  UNL1        0.0660
@<TRIPOS>BOND
     1     1    15    1
     2     1    22    1
     3     2    18    1
     4     2    22    1
     5     3    19    1
     6     3    23    1
     7     4    11    2
     8     5     6   ar
     9     5     7   ar
    10     5    14    1
    11     6     8    1
    12     6    10   ar
    13     7     9   ar
    14     7    13   ar
    15     8    12   ar
    16     8    16   ar
    17     9    11   ar
    18     9    17   ar
    19    10    11   ar
    20    10    24    1
    21    12    15   ar
    22    12    25    1
    23    13    19   ar
    24    13    26    1
    25    14    27    1
    26    14    28    1
    27    14    29    1
    28    15    18   ar
    29    16    20   ar
    30    16    30    1
    31    17    21   ar
    32    17    31    1
    33    18    20   ar
    34    19    21   ar
    35    20    32    1
    36    21    33    1
    37    22    34    1
    38    22    35    1
    39    23    36    1
    40    23    37    1
    41    23    38    1
