@<TRIPOS>MOLECULE
IMPHY012617
 79 83 0 0 0
SMALL
GASTEIGER

@<TRIPOS>ATOM
      1 O           6.1197    0.1726    0.0000 O.3     1  UNL1       -0.4828
      2 O           6.2196   -1.9951    0.0000 O.2     1  UNL1       -0.2748
      3 O           8.6365    1.2882    0.0000 O.2     1  UNL1       -0.2758
      4 O           4.2983   -3.3890    0.0000 O.3     1  UNL1       -0.4914
      5 O           2.7661   -2.1035    0.0000 O.3     1  UNL1       -0.4915
      6 N           7.7093   -2.3531    0.0000 N.am    1  UNL1       -0.3008
      7 N           8.0254    3.1204    0.0000 N.3     1  UNL1       -0.3089
      8 N           9.9906    0.5140    0.0000 N.am    1  UNL1       -0.3152
      9 N           4.8702    1.0720    0.0000 N.3     1  UNL1       -0.3159
     10 C           7.5135   -0.6321    0.0000 C.3     1  UNL1        0.1051
     11 C           6.5248   -0.7352    0.0000 C.3     1  UNL1        0.1404
     12 C           7.7227    0.3397    0.0000 C.ar    1  UNL1        0.0104
     13 C           7.1146   -1.5491    0.0000 C.2     1  UNL1        0.2270
     14 C           6.8567    0.8397    0.0000 C.ar    1  UNL1        0.1255
     15 C           8.9876    2.7567    0.0000 C.3     1  UNL1        0.0412
     16 C           8.5887    1.8397    0.0000 C.ar    1  UNL1       -0.0295
     17 C           8.5887    0.8397    0.0000 C.ar    1  UNL1       -0.0496
     18 C           5.5851   -1.0772    0.0000 C.ar    1  UNL1       -0.0026
     19 C           6.6892   -2.2209    0.0000 C.3     1  UNL1        0.0147
     20 C           8.5132   -1.7584    0.0000 C.3     1  UNL1        0.0161
     21 C           6.8567    1.8397    0.0000 C.ar    1  UNL1       -0.0193
     22 C           5.7883   -1.7243    0.0000 C.3     1  UNL1       -0.0360
     23 C          10.0231    2.3615    0.0000 C.3     1  UNL1        0.0434
     24 C           7.7227    2.3397    0.0000 C.ar    1  UNL1       -0.0536
     25 C           8.6612   -0.7694    0.0000 C.3     1  UNL1       -0.0215
     26 C           5.1318   -0.9323    0.0000 C.3     1  UNL1       -0.0390
     27 C           6.9968    3.1066    0.0000 C.3     1  UNL1       -0.0024
     28 C           9.5917   -0.4030    0.0000 C.3     1  UNL1        0.0130
     29 C           5.4116   -2.0621    0.0000 C.ar    1  UNL1       -0.0096
     30 C           4.8190   -0.4344    0.0000 C.ar    1  UNL1       -0.0514
     31 C           6.0448    2.7170    0.0000 C.3     1  UNL1       -0.0278
     32 C           4.8109    0.0450    0.0000 C.3     1  UNL1       -0.0041
     33 C           9.6242    1.4445    0.0000 C.2     1  UNL1        0.2148
     34 C           5.3015    2.0059    0.0000 C.3     1  UNL1       -0.0030
     35 C           4.4719   -2.4042    0.0000 C.ar    1  UNL1        0.1619
     36 C           3.8793   -0.7765    0.0000 C.ar    1  UNL1       -0.0159
     37 C           3.7058   -1.7614    0.0000 C.ar    1  UNL1        0.1615
     38 C           3.3586   -3.7311    0.0000 C.3     1  UNL1        0.0790
     39 C           2.0000   -1.4607    0.0000 C.3     1  UNL1        0.0790
     40 H           8.1037   -0.8219    0.0000 H       1  UNL1        0.0484
     41 H           6.6640   -1.3393    0.0000 H       1  UNL1        0.0795
     42 H           9.2078    3.3363    0.0000 H       1  UNL1        0.0515
     43 H           9.1257    0.5297    0.0000 H       1  UNL1        0.0625
     44 H           6.2026   -2.6051    0.0000 H       1  UNL1        0.0464
     45 H           6.8820   -1.6316    0.0000 H       1  UNL1        0.0464
     46 H           8.7404   -2.3352    0.0000 H       1  UNL1        0.0465
     47 H           9.1293   -1.6883    0.0000 H       1  UNL1        0.0465
     48 H           6.3197    2.1497    0.0000 H       1  UNL1        0.0654
     49 H           5.1948   -1.9037    0.0000 H       1  UNL1        0.0281
     50 H           6.1835   -1.2466    0.0000 H       1  UNL1        0.0281
     51 H          10.5953    2.1228    0.0000 H       1  UNL1        0.0377
     52 H          10.2530    2.9373    0.0000 H       1  UNL1        0.0377
     53 H           7.7227    2.9597    0.0000 H       1  UNL1        0.0622
     54 H           8.5377   -0.1618    0.0000 H       1  UNL1        0.0295
     55 H           8.0414   -0.7855    0.0000 H       1  UNL1        0.0295
     56 H           8.1327    3.7311    0.0000 H       1  UNL1        0.1225
     57 H           4.5138   -0.8819    0.0000 H       1  UNL1        0.0278
     58 H           5.6745   -0.6326    0.0000 H       1  UNL1        0.0278
     59 H           7.2298    3.6812    0.0000 H       1  UNL1        0.0425
     60 H           7.1206    2.4990    0.0000 H       1  UNL1        0.0425
     61 H           9.6618   -1.0190    0.0000 H       1  UNL1        0.0462
     62 H          10.2049   -0.4947    0.0000 H       1  UNL1        0.0462
     63 H           5.8865   -2.4606    0.0000 H       1  UNL1        0.0659
     64 H           4.9267    0.1762    0.0000 H       1  UNL1        0.0623
     65 H           6.0511    3.3370    0.0000 H       1  UNL1        0.0290
     66 H           6.3824    2.1970    0.0000 H       1  UNL1        0.0290
     67 H           4.2544    0.3182    0.0000 H       1  UNL1        0.0424
     68 H           5.4257    0.1252    0.0000 H       1  UNL1        0.0424
     69 H           5.0804    2.5851    0.0000 H       1  UNL1        0.0424
     70 H           5.8061    1.6456    0.0000 H       1  UNL1        0.0424
     71 H          10.6105    0.5031    0.0000 H       1  UNL1        0.1487
     72 H           4.2688    1.2224    0.0000 H       1  UNL1        0.1219
     73 H           3.4044   -0.3780    0.0000 H       1  UNL1        0.0655
     74 H           3.1465   -3.1485    0.0000 H       1  UNL1        0.0660
     75 H           2.7760   -3.9432    0.0000 H       1  UNL1        0.0660
     76 H           3.5707   -4.3137    0.0000 H       1  UNL1        0.0660
     77 H           2.3985   -0.9858    0.0000 H       1  UNL1        0.0660
     78 H           1.5250   -1.0622    0.0000 H       1  UNL1        0.0660
     79 H           1.6015   -1.9357    0.0000 H       1  UNL1        0.0660
@<TRIPOS>BOND
     1     1    11    1
     2     1    14    1
     3     2    13    2
     4     3    33    2
     5     4    35    1
     6     4    38    1
     7     5    37    1
     8     5    39    1
     9     6    13   am
    10     6    19    1
    11     6    20    1
    12     7    15    1
    13     7    27    1
    14     7    56    1
    15     8    28    1
    16     8    33   am
    17     8    71    1
    18     9    32    1
    19     9    34    1
    20     9    72    1
    21    10    11    1
    22    10    12    1
    23    10    13    1
    24    10    40    1
    25    11    18    1
    26    11    41    1
    27    12    14   ar
    28    12    17   ar
    29    14    21   ar
    30    15    16    1
    31    15    23    1
    32    15    42    1
    33    16    17   ar
    34    16    24   ar
    35    17    43    1
    36    18    29   ar
    37    18    30   ar
    38    19    22    1
    39    19    44    1
    40    19    45    1
    41    20    25    1
    42    20    46    1
    43    20    47    1
    44    21    24   ar
    45    21    48    1
    46    22    26    1
    47    22    49    1
    48    22    50    1
    49    23    33    1
    50    23    51    1
    51    23    52    1
    52    24    53    1
    53    25    28    1
    54    25    54    1
    55    25    55    1
    56    26    32    1
    57    26    57    1
    58    26    58    1
    59    27    31    1
    60    27    59    1
    61    27    60    1
    62    28    61    1
    63    28    62    1
    64    29    35   ar
    65    29    63    1
    66    30    36   ar
    67    30    64    1
    68    31    34    1
    69    31    65    1
    70    31    66    1
    71    32    67    1
    72    32    68    1
    73    34    69    1
    74    34    70    1
    75    35    37   ar
    76    36    37   ar
    77    36    73    1
    78    38    74    1
    79    38    75    1
    80    38    76    1
    81    39    77    1
    82    39    78    1
    83    39    79    1
