@<TRIPOS>MOLECULE
IMPHY012652
 152 151 0 0 0
SMALL
GASTEIGER

@<TRIPOS>ATOM
      1 O           2.5369    0.7500    0.0000 O.3     1  UNL1       -0.4806
      2 O           3.4030   -0.7500    0.0000 O.2     1  UNL1       -0.2510
      3 C          25.0536    0.7500    0.0000 C.3     1  UNL1       -0.0531
      4 C          24.1876    0.2500    0.0000 C.3     1  UNL1       -0.0531
      5 C          25.9196    0.2500    0.0000 C.3     1  UNL1       -0.0531
      6 C          23.3215    0.7500    0.0000 C.3     1  UNL1       -0.0531
      7 C          26.7856    0.7500    0.0000 C.3     1  UNL1       -0.0531
      8 C          22.4555    0.2500    0.0000 C.3     1  UNL1       -0.0531
      9 C          27.6517    0.2500    0.0000 C.3     1  UNL1       -0.0531
     10 C          21.5895    0.7500    0.0000 C.3     1  UNL1       -0.0531
     11 C          28.5177    0.7500    0.0000 C.3     1  UNL1       -0.0531
     12 C          20.7235    0.2500    0.0000 C.3     1  UNL1       -0.0531
     13 C          29.3837    0.2500    0.0000 C.3     1  UNL1       -0.0531
     14 C          19.8574    0.7500    0.0000 C.3     1  UNL1       -0.0531
     15 C          30.2497    0.7500    0.0000 C.3     1  UNL1       -0.0531
     16 C          18.9914    0.2500    0.0000 C.3     1  UNL1       -0.0531
     17 C          31.1158    0.2500    0.0000 C.3     1  UNL1       -0.0531
     18 C          18.1254    0.7500    0.0000 C.3     1  UNL1       -0.0531
     19 C          31.9818    0.7500    0.0000 C.3     1  UNL1       -0.0531
     20 C          17.2594    0.2500    0.0000 C.3     1  UNL1       -0.0531
     21 C          32.8478    0.2500    0.0000 C.3     1  UNL1       -0.0531
     22 C          16.3933    0.7500    0.0000 C.3     1  UNL1       -0.0531
     23 C          33.7139    0.7500    0.0000 C.3     1  UNL1       -0.0531
     24 C          15.5273    0.2500    0.0000 C.3     1  UNL1       -0.0531
     25 C          34.5799    0.2500    0.0000 C.3     1  UNL1       -0.0531
     26 C          14.6613    0.7500    0.0000 C.3     1  UNL1       -0.0531
     27 C          35.4459    0.7500    0.0000 C.3     1  UNL1       -0.0531
     28 C          13.7953    0.2500    0.0000 C.3     1  UNL1       -0.0531
     29 C          36.3119    0.2500    0.0000 C.3     1  UNL1       -0.0531
     30 C          12.9292    0.7500    0.0000 C.3     1  UNL1       -0.0531
     31 C          37.1780    0.7500    0.0000 C.3     1  UNL1       -0.0531
     32 C          12.0632    0.2500    0.0000 C.3     1  UNL1       -0.0531
     33 C          38.0440    0.2500    0.0000 C.3     1  UNL1       -0.0531
     34 C          11.1972    0.7500    0.0000 C.3     1  UNL1       -0.0531
     35 C          38.9100    0.7500    0.0000 C.3     1  UNL1       -0.0531
     36 C          10.3312    0.2500    0.0000 C.3     1  UNL1       -0.0531
     37 C          39.7760    0.2500    0.0000 C.3     1  UNL1       -0.0531
     38 C           9.4651    0.7500    0.0000 C.3     1  UNL1       -0.0531
     39 C          40.6421    0.7500    0.0000 C.3     1  UNL1       -0.0531
     40 C           8.5991    0.2500    0.0000 C.3     1  UNL1       -0.0531
     41 C          41.5081    0.2500    0.0000 C.3     1  UNL1       -0.0531
     42 C           7.7331    0.7500    0.0000 C.3     1  UNL1       -0.0531
     43 C          42.3741    0.7500    0.0000 C.3     1  UNL1       -0.0531
     44 C           6.8671    0.2500    0.0000 C.3     1  UNL1       -0.0530
     45 C          43.2401    0.2500    0.0000 C.3     1  UNL1       -0.0531
     46 C           6.0010    0.7500    0.0000 C.3     1  UNL1       -0.0526
     47 C          44.1062    0.7500    0.0000 C.3     1  UNL1       -0.0533
     48 C           5.1350    0.2500    0.0000 C.3     1  UNL1       -0.0430
     49 C          44.9722    0.2500    0.0000 C.3     1  UNL1       -0.0559
     50 C           4.2690    0.7500    0.0000 C.3     1  UNL1        0.0448
     51 C          45.8382    0.7500    0.0000 C.3     1  UNL1       -0.0653
     52 C           3.4030    0.2500    0.0000 C.2     1  UNL1        0.3047
     53 H          25.4521    1.2250    0.0000 H       1  UNL1        0.0265
     54 H          24.6551    1.2250    0.0000 H       1  UNL1        0.0265
     55 H          23.7890   -0.2249    0.0000 H       1  UNL1        0.0265
     56 H          24.5861   -0.2249    0.0000 H       1  UNL1        0.0265
     57 H          25.5211   -0.2249    0.0000 H       1  UNL1        0.0265
     58 H          26.3182   -0.2249    0.0000 H       1  UNL1        0.0265
     59 H          23.7201    1.2250    0.0000 H       1  UNL1        0.0265
     60 H          22.9230    1.2250    0.0000 H       1  UNL1        0.0265
     61 H          27.1842    1.2250    0.0000 H       1  UNL1        0.0265
     62 H          26.3871    1.2250    0.0000 H       1  UNL1        0.0265
     63 H          22.0570   -0.2249    0.0000 H       1  UNL1        0.0265
     64 H          22.8540   -0.2249    0.0000 H       1  UNL1        0.0265
     65 H          27.2531   -0.2249    0.0000 H       1  UNL1        0.0265
     66 H          28.0502   -0.2249    0.0000 H       1  UNL1        0.0265
     67 H          21.9880    1.2250    0.0000 H       1  UNL1        0.0265
     68 H          21.1910    1.2250    0.0000 H       1  UNL1        0.0265
     69 H          28.9162    1.2250    0.0000 H       1  UNL1        0.0265
     70 H          28.1192    1.2250    0.0000 H       1  UNL1        0.0265
     71 H          20.3249   -0.2249    0.0000 H       1  UNL1        0.0265
     72 H          21.1220   -0.2249    0.0000 H       1  UNL1        0.0265
     73 H          28.9852   -0.2249    0.0000 H       1  UNL1        0.0265
     74 H          29.7823   -0.2249    0.0000 H       1  UNL1        0.0265
     75 H          20.2560    1.2250    0.0000 H       1  UNL1        0.0265
     76 H          19.4589    1.2250    0.0000 H       1  UNL1        0.0265
     77 H          30.6483    1.2250    0.0000 H       1  UNL1        0.0265
     78 H          29.8512    1.2250    0.0000 H       1  UNL1        0.0265
     79 H          18.5929   -0.2249    0.0000 H       1  UNL1        0.0265
     80 H          19.3899   -0.2249    0.0000 H       1  UNL1        0.0265
     81 H          30.7172   -0.2249    0.0000 H       1  UNL1        0.0265
     82 H          31.5143   -0.2249    0.0000 H       1  UNL1        0.0265
     83 H          18.5239    1.2250    0.0000 H       1  UNL1        0.0265
     84 H          17.7269    1.2250    0.0000 H       1  UNL1        0.0265
     85 H          32.3803    1.2250    0.0000 H       1  UNL1        0.0265
     86 H          31.5833    1.2250    0.0000 H       1  UNL1        0.0265
     87 H          16.8608   -0.2249    0.0000 H       1  UNL1        0.0265
     88 H          17.6579   -0.2249    0.0000 H       1  UNL1        0.0265
     89 H          32.4493   -0.2249    0.0000 H       1  UNL1        0.0265
     90 H          33.2464   -0.2249    0.0000 H       1  UNL1        0.0265
     91 H          16.7919    1.2250    0.0000 H       1  UNL1        0.0265
     92 H          15.9948    1.2250    0.0000 H       1  UNL1        0.0265
     93 H          34.1124    1.2250    0.0000 H       1  UNL1        0.0265
     94 H          33.3153    1.2250    0.0000 H       1  UNL1        0.0265
     95 H          15.1288   -0.2249    0.0000 H       1  UNL1        0.0265
     96 H          15.9258   -0.2249    0.0000 H       1  UNL1        0.0265
     97 H          34.1813   -0.2249    0.0000 H       1  UNL1        0.0265
     98 H          34.9784   -0.2249    0.0000 H       1  UNL1        0.0265
     99 H          15.0598    1.2250    0.0000 H       1  UNL1        0.0265
    100 H          14.2628    1.2250    0.0000 H       1  UNL1        0.0265
    101 H          35.8444    1.2250    0.0000 H       1  UNL1        0.0265
    102 H          35.0474    1.2250    0.0000 H       1  UNL1        0.0265
    103 H          13.3967   -0.2249    0.0000 H       1  UNL1        0.0265
    104 H          14.1938   -0.2249    0.0000 H       1  UNL1        0.0265
    105 H          35.9134   -0.2249    0.0000 H       1  UNL1        0.0265
    106 H          36.7105   -0.2249    0.0000 H       1  UNL1        0.0265
    107 H          13.3278    1.2250    0.0000 H       1  UNL1        0.0265
    108 H          12.5307    1.2250    0.0000 H       1  UNL1        0.0265
    109 H          37.5765    1.2250    0.0000 H       1  UNL1        0.0265
    110 H          36.7794    1.2250    0.0000 H       1  UNL1        0.0265
    111 H          11.6647   -0.2249    0.0000 H       1  UNL1        0.0265
    112 H          12.4617   -0.2249    0.0000 H       1  UNL1        0.0265
    113 H          37.6454   -0.2249    0.0000 H       1  UNL1        0.0265
    114 H          38.4425   -0.2249    0.0000 H       1  UNL1        0.0265
    115 H          11.5957    1.2250    0.0000 H       1  UNL1        0.0265
    116 H          10.7987    1.2250    0.0000 H       1  UNL1        0.0265
    117 H          39.3085    1.2250    0.0000 H       1  UNL1        0.0265
    118 H          38.5115    1.2250    0.0000 H       1  UNL1        0.0265
    119 H           9.9326   -0.2249    0.0000 H       1  UNL1        0.0265
    120 H          10.7297   -0.2249    0.0000 H       1  UNL1        0.0265
    121 H          39.3775   -0.2249    0.0000 H       1  UNL1        0.0265
    122 H          40.1746   -0.2249    0.0000 H       1  UNL1        0.0265
    123 H           9.8637    1.2250    0.0000 H       1  UNL1        0.0265
    124 H           9.0666    1.2250    0.0000 H       1  UNL1        0.0265
    125 H          41.0406    1.2250    0.0000 H       1  UNL1        0.0265
    126 H          40.2435    1.2250    0.0000 H       1  UNL1        0.0265
    127 H           8.2006   -0.2249    0.0000 H       1  UNL1        0.0265
    128 H           8.9976   -0.2249    0.0000 H       1  UNL1        0.0265
    129 H          41.1096   -0.2249    0.0000 H       1  UNL1        0.0265
    130 H          41.9066   -0.2249    0.0000 H       1  UNL1        0.0265
    131 H           8.1316    1.2250    0.0000 H       1  UNL1        0.0265
    132 H           7.3346    1.2250    0.0000 H       1  UNL1        0.0265
    133 H          42.7726    1.2250    0.0000 H       1  UNL1        0.0265
    134 H          41.9756    1.2250    0.0000 H       1  UNL1        0.0265
    135 H           6.4685   -0.2249    0.0000 H       1  UNL1        0.0265
    136 H           7.2656   -0.2249    0.0000 H       1  UNL1        0.0265
    137 H          42.8416   -0.2249    0.0000 H       1  UNL1        0.0265
    138 H          43.6387   -0.2249    0.0000 H       1  UNL1        0.0265
    139 H           6.3996    1.2250    0.0000 H       1  UNL1        0.0265
    140 H           5.6025    1.2250    0.0000 H       1  UNL1        0.0265
    141 H          44.5047    1.2250    0.0000 H       1  UNL1        0.0265
    142 H          43.7076    1.2250    0.0000 H       1  UNL1        0.0265
    143 H           4.7365   -0.2249    0.0000 H       1  UNL1        0.0270
    144 H           5.5335   -0.2249    0.0000 H       1  UNL1        0.0270
    145 H          44.5737   -0.2249    0.0000 H       1  UNL1        0.0263
    146 H          45.3707   -0.2249    0.0000 H       1  UNL1        0.0263
    147 H           4.6675    1.2250    0.0000 H       1  UNL1        0.0377
    148 H           3.8705    1.2250    0.0000 H       1  UNL1        0.0377
    149 H          46.1482    0.2131    0.0000 H       1  UNL1        0.0230
    150 H          46.3751    1.0600    0.0000 H       1  UNL1        0.0230
    151 H          45.5282    1.2869    0.0000 H       1  UNL1        0.0230
    152 H           2.0000    0.4400    0.0000 H       1  UNL1        0.2951
@<TRIPOS>BOND
     1     1    52    1
     2     1   152    1
     3     2    52    2
     4     3     4    1
     5     3     5    1
     6     3    53    1
     7     3    54    1
     8     4     6    1
     9     4    55    1
    10     4    56    1
    11     5     7    1
    12     5    57    1
    13     5    58    1
    14     6     8    1
    15     6    59    1
    16     6    60    1
    17     7     9    1
    18     7    61    1
    19     7    62    1
    20     8    10    1
    21     8    63    1
    22     8    64    1
    23     9    11    1
    24     9    65    1
    25     9    66    1
    26    10    12    1
    27    10    67    1
    28    10    68    1
    29    11    13    1
    30    11    69    1
    31    11    70    1
    32    12    14    1
    33    12    71    1
    34    12    72    1
    35    13    15    1
    36    13    73    1
    37    13    74    1
    38    14    16    1
    39    14    75    1
    40    14    76    1
    41    15    17    1
    42    15    77    1
    43    15    78    1
    44    16    18    1
    45    16    79    1
    46    16    80    1
    47    17    19    1
    48    17    81    1
    49    17    82    1
    50    18    20    1
    51    18    83    1
    52    18    84    1
    53    19    21    1
    54    19    85    1
    55    19    86    1
    56    20    22    1
    57    20    87    1
    58    20    88    1
    59    21    23    1
    60    21    89    1
    61    21    90    1
    62    22    24    1
    63    22    91    1
    64    22    92    1
    65    23    25    1
    66    23    93    1
    67    23    94    1
    68    24    26    1
    69    24    95    1
    70    24    96    1
    71    25    27    1
    72    25    97    1
    73    25    98    1
    74    26    28    1
    75    26    99    1
    76    26   100    1
    77    27    29    1
    78    27   101    1
    79    27   102    1
    80    28    30    1
    81    28   103    1
    82    28   104    1
    83    29    31    1
    84    29   105    1
    85    29   106    1
    86    30    32    1
    87    30   107    1
    88    30   108    1
    89    31    33    1
    90    31   109    1
    91    31   110    1
    92    32    34    1
    93    32   111    1
    94    32   112    1
    95    33    35    1
    96    33   113    1
    97    33   114    1
    98    34    36    1
    99    34   115    1
   100    34   116    1
   101    35    37    1
   102    35   117    1
   103    35   118    1
   104    36    38    1
   105    36   119    1
   106    36   120    1
   107    37    39    1
   108    37   121    1
   109    37   122    1
   110    38    40    1
   111    38   123    1
   112    38   124    1
   113    39    41    1
   114    39   125    1
   115    39   126    1
   116    40    42    1
   117    40   127    1
   118    40   128    1
   119    41    43    1
   120    41   129    1
   121    41   130    1
   122    42    44    1
   123    42   131    1
   124    42   132    1
   125    43    45    1
   126    43   133    1
   127    43   134    1
   128    44    46    1
   129    44   135    1
   130    44   136    1
   131    45    47    1
   132    45   137    1
   133    45   138    1
   134    46    48    1
   135    46   139    1
   136    46   140    1
   137    47    49    1
   138    47   141    1
   139    47   142    1
   140    48    50    1
   141    48   143    1
   142    48   144    1
   143    49    51    1
   144    49   145    1
   145    49   146    1
   146    50    52    1
   147    50   147    1
   148    50   148    1
   149    51   149    1
   150    51   150    1
   151    51   151    1
