@<TRIPOS>MOLECULE
IMPHY008788
 102 107 0 0 0
SMALL
GASTEIGER

@<TRIPOS>ATOM
      1 O           6.8671   -3.1941    0.0000 O.3     1  UNL1       -0.3449
      2 O           8.6209    6.0853    0.0000 O.3     1  UNL1       -0.4802
      3 O           9.5042    4.5954    0.0000 O.2     1  UNL1       -0.2504
      4 O           5.1350   -3.1941    0.0000 O.3     1  UNL1       -0.3405
      5 O           6.8671   -5.1941    0.0000 O.3     1  UNL1       -0.3841
      6 O           5.1350   -6.1941    0.0000 O.3     1  UNL1       -0.3864
      7 O           3.4030   -5.1941    0.0000 O.3     1  UNL1       -0.3865
      8 O           2.5369   -3.6941    0.0000 O.3     1  UNL1       -0.3924
      9 C           7.7681    1.5061    0.0000 C.3     1  UNL1       -0.0194
     10 C           6.9040    1.0028    0.0000 C.3     1  UNL1       -0.0257
     11 C           6.8920   -0.0388    0.0000 C.3     1  UNL1       -0.0250
     12 C           7.7643    2.5061    0.0000 C.3     1  UNL1       -0.0051
     13 C           7.7920   -0.5631    0.0000 C.3     1  UNL1       -0.0278
     14 C           8.6801    1.0028    0.0000 C.3     1  UNL1       -0.0463
     15 C           7.8046   -1.6480    0.0000 C.3     1  UNL1       -0.0052
     16 C           8.6921   -0.0388    0.0000 C.3     1  UNL1       -0.0486
     17 C           6.8963    3.0027    0.0000 C.2     1  UNL1       -0.0629
     18 C           6.0361    1.4994    0.0000 C.3     1  UNL1       -0.0306
     19 C           6.8762    4.0442    0.0000 C.3     1  UNL1       -0.0031
     20 C           5.9421   -0.5631    0.0000 C.3     1  UNL1       -0.0447
     21 C           8.6723    3.0164    0.0000 C.3     1  UNL1       -0.0424
     22 C           7.7722    4.5754    0.0000 C.3     1  UNL1        0.0741
     23 C           8.7522    1.6835    0.0000 C.3     1  UNL1       -0.0585
     24 C           6.8671   -2.1941    0.0000 C.3     1  UNL1        0.0672
     25 C           8.6763    4.0580    0.0000 C.3     1  UNL1       -0.0359
     26 C           6.0279    0.4645    0.0000 C.3     1  UNL1       -0.0590
     27 C           5.9295   -1.6480    0.0000 C.3     1  UNL1       -0.0255
     28 C           6.0322    2.4994    0.0000 C.2     1  UNL1       -0.0836
     29 C           8.7497    2.3362    0.0000 C.3     1  UNL1       -0.0553
     30 C           5.9223    4.5611    0.0000 C.3     1  UNL1       -0.0403
     31 C           7.7764    5.6604    0.0000 C.3     1  UNL1       -0.0362
     32 C           5.9014    5.6459    0.0000 C.3     1  UNL1       -0.0343
     33 C           8.3113   -2.5102    0.0000 C.3     1  UNL1       -0.0572
     34 C           8.8046   -1.6403    0.0000 C.3     1  UNL1       -0.0572
     35 C           6.8347    6.1992    0.0000 C.3     1  UNL1       -0.0468
     36 C           8.6324    5.0854    0.0000 C.2     1  UNL1        0.3115
     37 C           5.3881    6.5041    0.0000 C.3     1  UNL1       -0.0598
     38 C           4.9015    5.6305    0.0000 C.3     1  UNL1       -0.0598
     39 C           6.0010   -3.6941    0.0000 C.3     1  UNL1        0.1882
     40 C           6.0010   -4.6941    0.0000 C.3     1  UNL1        0.1341
     41 C           5.1350   -5.1941    0.0000 C.3     1  UNL1        0.1141
     42 C           4.2690   -3.6941    0.0000 C.3     1  UNL1        0.1130
     43 C           4.2690   -4.6941    0.0000 C.3     1  UNL1        0.1119
     44 C           3.4030   -3.1941    0.0000 C.3     1  UNL1        0.0730
     45 H           7.6385    0.5749    0.0000 H       1  UNL1        0.0315
     46 H           8.5314   -0.9824    0.0000 H       1  UNL1        0.0312
     47 H           9.2921    0.9037    0.0000 H       1  UNL1        0.0271
     48 H           8.8824    1.5888    0.0000 H       1  UNL1        0.0271
     49 H           8.9079   -0.6200    0.0000 H       1  UNL1        0.0268
     50 H           9.3017    0.0743    0.0000 H       1  UNL1        0.0268
     51 H           5.4251    1.6047    0.0000 H       1  UNL1        0.0310
     52 H           5.8263    0.9160    0.0000 H       1  UNL1        0.0310
     53 H           6.1502    3.6023    0.0000 H       1  UNL1        0.0357
     54 H           5.7398    0.0230    0.0000 H       1  UNL1        0.0271
     55 H           5.3300   -0.6621    0.0000 H       1  UNL1        0.0271
     56 H           8.8791    2.4319    0.0000 H       1  UNL1        0.0274
     57 H           9.2836    3.1202    0.0000 H       1  UNL1        0.0274
     58 H           8.8623    1.0734    0.0000 H       1  UNL1        0.0235
     59 H           9.3624    1.7936    0.0000 H       1  UNL1        0.0235
     60 H           8.6422    2.2937    0.0000 H       1  UNL1        0.0235
     61 H           7.4046   -2.5031    0.0000 H       1  UNL1        0.0602
     62 H           9.2868    3.9496    0.0000 H       1  UNL1        0.0276
     63 H           8.8876    4.6409    0.0000 H       1  UNL1        0.0276
     64 H           6.3400    1.0003    0.0000 H       1  UNL1        0.0235
     65 H           5.4922    0.7766    0.0000 H       1  UNL1        0.0235
     66 H           5.7158   -0.0712    0.0000 H       1  UNL1        0.0235
     67 H           5.3199   -1.5349    0.0000 H       1  UNL1        0.0290
     68 H           5.7137   -2.2292    0.0000 H       1  UNL1        0.0290
     69 H           5.4941    2.8073    0.0000 H       1  UNL1        0.0572
     70 H           8.6444    1.7252    0.0000 H       1  UNL1        0.0238
     71 H           9.3607    2.2309    0.0000 H       1  UNL1        0.0238
     72 H           8.8550    2.9472    0.0000 H       1  UNL1        0.0238
     73 H           5.3095    4.6554    0.0000 H       1  UNL1        0.0276
     74 H           5.7246    3.9735    0.0000 H       1  UNL1        0.0276
     75 H           8.3869    5.5519    0.0000 H       1  UNL1        0.0276
     76 H           7.9877    6.2433    0.0000 H       1  UNL1        0.0276
     77 H           7.7767   -2.8243    0.0000 H       1  UNL1        0.0236
     78 H           8.6254   -3.0447    0.0000 H       1  UNL1        0.0236
     79 H           8.8458   -2.1960    0.0000 H       1  UNL1        0.0236
     80 H           8.8094   -2.2603    0.0000 H       1  UNL1        0.0236
     81 H           9.4246   -1.6355    0.0000 H       1  UNL1        0.0236
     82 H           8.7998   -1.0203    0.0000 H       1  UNL1        0.0236
     83 H           7.2302    6.6767    0.0000 H       1  UNL1        0.0271
     84 H           6.4319    6.6706    0.0000 H       1  UNL1        0.0271
     85 H           5.9202    6.8224    0.0000 H       1  UNL1        0.0235
     86 H           5.0699    7.0362    0.0000 H       1  UNL1        0.0235
     87 H           4.8560    6.1859    0.0000 H       1  UNL1        0.0235
     88 H           4.8920    6.2504    0.0000 H       1  UNL1        0.0235
     89 H           4.2816    5.6209    0.0000 H       1  UNL1        0.0235
     90 H           4.9111    5.0106    0.0000 H       1  UNL1        0.0235
     91 H           6.0010   -3.0741    0.0000 H       1  UNL1        0.0937
     92 H           9.1542    6.4015    0.0000 H       1  UNL1        0.2951
     93 H           6.0010   -5.3141    0.0000 H       1  UNL1        0.0671
     94 H           4.5981   -5.5041    0.0000 H       1  UNL1        0.0648
     95 H           4.2690   -3.0741    0.0000 H       1  UNL1        0.0647
     96 H           3.7320   -4.3841    0.0000 H       1  UNL1        0.0647
     97 H           6.8671   -5.8141    0.0000 H       1  UNL1        0.2101
     98 H           3.8015   -2.7192    0.0000 H       1  UNL1        0.0584
     99 H           3.0044   -2.7192    0.0000 H       1  UNL1        0.0584
    100 H           4.5981   -6.5041    0.0000 H       1  UNL1        0.2100
    101 H           3.4030   -5.8141    0.0000 H       1  UNL1        0.2100
    102 H           2.0000   -3.3841    0.0000 H       1  UNL1        0.2095
@<TRIPOS>BOND
     1    24     1    1
     2    39     1    1
     3     2    36    1
     4     2    92    1
     5     3    36    2
     6     4    39    1
     7     4    42    1
     8    40     5    1
     9     5    97    1
    10    41     6    1
    11     6   100    1
    12    43     7    1
    13     7   101    1
    14     8    44    1
    15     8   102    1
    16     9    10    1
    17     9    12    1
    18     9    14    1
    19     9    23    1
    20    10    11    1
    21    10    18    1
    22    10    45    1
    23    11    13    1
    24    11    20    1
    25    11    26    1
    26    12    17    1
    27    12    21    1
    28    12    29    1
    29    13    15    1
    30    13    16    1
    31    13    46    1
    32    14    16    1
    33    14    47    1
    34    14    48    1
    35    15    24    1
    36    15    33    1
    37    15    34    1
    38    16    49    1
    39    16    50    1
    40    17    19    1
    41    17    28    2
    42    18    28    1
    43    18    51    1
    44    18    52    1
    45    19    22    1
    46    19    30    1
    47    19    53    1
    48    20    27    1
    49    20    54    1
    50    20    55    1
    51    21    25    1
    52    21    56    1
    53    21    57    1
    54    22    25    1
    55    22    31    1
    56    22    36    1
    57    23    58    1
    58    23    59    1
    59    23    60    1
    60    24    27    1
    61    24    61    1
    62    25    62    1
    63    25    63    1
    64    26    64    1
    65    26    65    1
    66    26    66    1
    67    27    67    1
    68    27    68    1
    69    28    69    1
    70    29    70    1
    71    29    71    1
    72    29    72    1
    73    30    32    1
    74    30    73    1
    75    30    74    1
    76    31    35    1
    77    31    75    1
    78    31    76    1
    79    32    35    1
    80    32    37    1
    81    32    38    1
    82    33    77    1
    83    33    78    1
    84    33    79    1
    85    34    80    1
    86    34    81    1
    87    34    82    1
    88    35    83    1
    89    35    84    1
    90    37    85    1
    91    37    86    1
    92    37    87    1
    93    38    88    1
    94    38    89    1
    95    38    90    1
    96    39    40    1
    97    39    91    1
    98    40    41    1
    99    40    93    1
   100    41    43    1
   101    41    94    1
   102    42    43    1
   103    42    44    1
   104    42    95    1
   105    43    96    1
   106    44    98    1
   107    44    99    1
