@<TRIPOS>MOLECULE
IMPHY006636
 34 37 0 0 0
SMALL
GASTEIGER

@<TRIPOS>ATOM
      1 O           7.3962    1.0843    0.0000 O.3     1  UNL1       -0.3650
      2 O           7.3424   -0.6110    0.0000 O.2     1  UNL1       -0.4625
      3 O           3.7702   -0.3810    0.0000 O.2     1  UNL1       -0.4218
      4 O           2.0000   -0.3915    0.0000 O.2     1  UNL1       -0.2452
      5 C           6.8962    1.9503    0.0000 C.3     1  UNL1        0.0907
      6 C           6.3961    1.0843    0.0000 C.3     1  UNL1        0.0920
      7 C           5.5301    0.5843    0.0000 C.3     1  UNL1        0.0084
      8 C           7.7622    2.4503    0.0000 C.3     1  UNL1       -0.0336
      9 C           6.0301    2.4503    0.0000 C.3     1  UNL1       -0.0336
     10 C           5.5301   -0.4157    0.0000 C.ar    1  UNL1        0.0408
     11 C           6.3961   -0.9157    0.0000 C.ar    1  UNL1        0.1416
     12 C           4.6641   -0.9157    0.0000 C.ar    1  UNL1        0.1458
     13 C           6.3961   -1.9157    0.0000 C.ar    1  UNL1        0.0212
     14 C           4.6641   -1.9157    0.0000 C.ar    1  UNL1        0.0187
     15 C           5.5301   -2.4157    0.0000 C.ar    1  UNL1       -0.0403
     16 C           7.3424   -2.2204    0.0000 C.ar    1  UNL1       -0.0161
     17 C           3.7702   -2.4503    0.0000 C.ar    1  UNL1       -0.0443
     18 C           7.9260   -1.4157    0.0000 C.ar    1  UNL1        0.0931
     19 C           2.8641   -0.8949    0.0000 C.ar    1  UNL1        0.3372
     20 C           2.8641   -1.9365    0.0000 C.ar    1  UNL1        0.0236
     21 H           6.5566    0.4854    0.0000 H       1  UNL1        0.0628
     22 H           5.3181    1.1669    0.0000 H       1  UNL1        0.0342
     23 H           4.9196    0.4767    0.0000 H       1  UNL1        0.0342
     24 H           6.3401    2.9873    0.0000 H       1  UNL1        0.0258
     25 H           5.4932    2.7603    0.0000 H       1  UNL1        0.0258
     26 H           5.7201    1.9134    0.0000 H       1  UNL1        0.0258
     27 H           8.0722    1.9134    0.0000 H       1  UNL1        0.0258
     28 H           8.2991    2.7603    0.0000 H       1  UNL1        0.0258
     29 H           7.4522    2.9873    0.0000 H       1  UNL1        0.0258
     30 H           5.5301   -3.0357    0.0000 H       1  UNL1        0.0632
     31 H           7.5350   -2.8097    0.0000 H       1  UNL1        0.0655
     32 H           3.7773   -3.0703    0.0000 H       1  UNL1        0.0627
     33 H           8.5460   -1.4157    0.0000 H       1  UNL1        0.1029
     34 H           2.3284   -2.2486    0.0000 H       1  UNL1        0.0689
@<TRIPOS>BOND
     1     1     5    1
     2     1     6    1
     3     2    11   ar
     4     2    18   ar
     5     3    12   ar
     6     3    19   ar
     7     4    19    2
     8     5     6    1
     9     5     8    1
    10     5     9    1
    11     6     7    1
    12     6    21    1
    13     7    10    1
    14     7    22    1
    15     7    23    1
    16     8    27    1
    17     8    28    1
    18     8    29    1
    19     9    24    1
    20     9    25    1
    21     9    26    1
    22    10    11   ar
    23    10    12   ar
    24    11    13   ar
    25    12    14   ar
    26    13    15   ar
    27    13    16   ar
    28    14    15   ar
    29    14    17   ar
    30    15    30    1
    31    16    18   ar
    32    16    31    1
    33    17    20   ar
    34    17    32    1
    35    18    33    1
    36    19    20   ar
    37    20    34    1
