@<TRIPOS>MOLECULE
IMPHY002869
 58 61 0 0 0
SMALL
GASTEIGER

@<TRIPOS>ATOM
      1 O           5.1350   -2.6176    0.0000 O.3     1  UNL1       -0.3313
      2 O           6.8671   -2.6176    0.0000 O.3     1  UNL1       -0.4572
      3 O           5.1350   -5.6175    0.0000 O.3     1  UNL1       -0.3864
      4 O           3.4030   -4.6175    0.0000 O.3     1  UNL1       -0.3865
      5 O           6.8671   -4.6175    0.0000 O.3     1  UNL1       -0.3829
      6 O           2.5369   -3.1176    0.0000 O.3     1  UNL1       -0.3924
      7 O           5.1350   -1.6176    0.0000 O.3     1  UNL1       -0.4914
      8 O           7.7331    1.8824    0.0000 O.2     1  UNL1       -0.4544
      9 O           5.1350    3.3824    0.0000 O.2     1  UNL1       -0.2869
     10 O           9.5191    4.9276    0.0000 O.3     1  UNL1       -0.4949
     11 O           5.9793    4.9139    0.0000 O.3     1  UNL1       -0.5058
     12 C           5.1350   -4.6175    0.0000 C.3     1  UNL1        0.1152
     13 C           4.2690   -4.1175    0.0000 C.3     1  UNL1        0.1120
     14 C           6.0010   -4.1175    0.0000 C.3     1  UNL1        0.1454
     15 C           4.2690   -3.1176    0.0000 C.3     1  UNL1        0.1140
     16 C           6.0010   -3.1176    0.0000 C.3     1  UNL1        0.2310
     17 C           3.4030   -2.6176    0.0000 C.3     1  UNL1        0.0731
     18 C           6.8671   -1.6176    0.0000 C.ar    1  UNL1        0.1654
     19 C           6.0010   -1.1176    0.0000 C.ar    1  UNL1        0.1623
     20 C           7.7331   -1.1176    0.0000 C.ar    1  UNL1       -0.0155
     21 C           6.8671    0.3825    0.0000 C.ar    1  UNL1        0.0211
     22 C           6.0010   -0.1175    0.0000 C.ar    1  UNL1       -0.0056
     23 C           7.7331   -0.1175    0.0000 C.ar    1  UNL1       -0.0474
     24 C           6.8671    1.3824    0.0000 C.ar    1  UNL1        0.1393
     25 C           6.0010    1.8824    0.0000 C.ar    1  UNL1        0.0288
     26 C           7.7331    2.8824    0.0000 C.ar    1  UNL1        0.1462
     27 C           6.8671    3.3824    0.0000 C.ar    1  UNL1        0.1055
     28 C           6.0010    2.8824    0.0000 C.ar    1  UNL1        0.1966
     29 C           6.8510    4.4240    0.0000 C.ar    1  UNL1        0.1347
     30 C           8.6431    3.3893    0.0000 C.ar    1  UNL1        0.0233
     31 C           4.2690   -1.1176    0.0000 C.3     1  UNL1        0.0790
     32 C           8.6511    4.4309    0.0000 C.ar    1  UNL1        0.1271
     33 C           7.7490    4.9517    0.0000 C.ar    1  UNL1        0.0225
     34 C           9.5229    5.9276    0.0000 C.3     1  UNL1        0.0788
     35 H           5.6720   -4.9276    0.0000 H       1  UNL1        0.0648
     36 H           3.7320   -3.8076    0.0000 H       1  UNL1        0.0647
     37 H           6.5380   -3.8076    0.0000 H       1  UNL1        0.0683
     38 H           4.2690   -2.4976    0.0000 H       1  UNL1        0.0647
     39 H           6.0010   -2.4976    0.0000 H       1  UNL1        0.1084
     40 H           3.8015   -2.1426    0.0000 H       1  UNL1        0.0584
     41 H           3.0044   -2.1426    0.0000 H       1  UNL1        0.0584
     42 H           5.6720   -5.9276    0.0000 H       1  UNL1        0.2100
     43 H           3.4030   -5.2376    0.0000 H       1  UNL1        0.2100
     44 H           7.4040   -4.3076    0.0000 H       1  UNL1        0.2102
     45 H           2.0000   -2.8076    0.0000 H       1  UNL1        0.2095
     46 H           8.2700   -1.4276    0.0000 H       1  UNL1        0.0655
     47 H           5.4641    0.1925    0.0000 H       1  UNL1        0.0662
     48 H           8.2700    0.1925    0.0000 H       1  UNL1        0.0626
     49 H           5.4641    1.5724    0.0000 H       1  UNL1        0.0693
     50 H           9.1764    3.0731    0.0000 H       1  UNL1        0.0691
     51 H           4.5790   -0.5806    0.0000 H       1  UNL1        0.0660
     52 H           3.7320   -0.8075    0.0000 H       1  UNL1        0.0660
     53 H           3.9590   -1.6545    0.0000 H       1  UNL1        0.0660
     54 H           7.7466    5.5717    0.0000 H       1  UNL1        0.0691
     55 H           5.9721    5.5339    0.0000 H       1  UNL1        0.2922
     56 H          10.1429    5.9252    0.0000 H       1  UNL1        0.0660
     57 H           9.5253    6.5475    0.0000 H       1  UNL1        0.0660
     58 H           8.9029    5.9299    0.0000 H       1  UNL1        0.0660
@<TRIPOS>BOND
     1     1    15    1
     2     1    16    1
     3    16     2    1
     4     2    18    1
     5    12     3    1
     6     3    42    1
     7    13     4    1
     8     4    43    1
     9    14     5    1
    10     5    44    1
    11     6    17    1
    12     6    45    1
    13     7    19    1
    14     7    31    1
    15     8    24   ar
    16     8    26   ar
    17     9    28    2
    18    10    32    1
    19    10    34    1
    20    11    29    1
    21    11    55    1
    22    12    13    1
    23    12    14    1
    24    12    35    1
    25    13    15    1
    26    13    36    1
    27    14    16    1
    28    14    37    1
    29    15    17    1
    30    15    38    1
    31    16    39    1
    32    17    40    1
    33    17    41    1
    34    18    19   ar
    35    18    20   ar
    36    19    22   ar
    37    20    23   ar
    38    20    46    1
    39    21    22   ar
    40    21    23   ar
    41    21    24    1
    42    22    47    1
    43    23    48    1
    44    24    25   ar
    45    25    28   ar
    46    25    49    1
    47    26    27   ar
    48    26    30   ar
    49    27    28   ar
    50    27    29   ar
    51    29    33   ar
    52    30    32   ar
    53    30    50    1
    54    31    51    1
    55    31    52    1
    56    31    53    1
    57    32    33   ar
    58    33    54    1
    59    34    56    1
    60    34    57    1
    61    34    58    1
