@<TRIPOS>MOLECULE
IMPHY015501
 33 33 0 0 0
SMALL
GASTEIGER

@<TRIPOS>ATOM
      1 O           3.7320   -0.5000    0.0000 O.3     1  UNL1       -0.4599
      2 O           2.8660    1.0000    0.0000 O.2     1  UNL1       -0.2508
      3 C           5.4641    2.5000    0.0000 C.3     1  UNL1       -0.0528
      4 C           4.5981    2.0000    0.0000 C.3     1  UNL1       -0.0430
      5 C           5.4641    3.5000    0.0000 C.3     1  UNL1       -0.0559
      6 C           4.5981    1.0000    0.0000 C.3     1  UNL1        0.0449
      7 C           6.3301    4.0000    0.0000 C.3     1  UNL1       -0.0653
      8 C           3.7320    0.5000    0.0000 C.2     1  UNL1        0.3074
      9 C           2.8660   -1.0000    0.0000 C.3     1  UNL1        0.1175
     10 C           2.8660   -2.0000    0.0000 C.ar    1  UNL1       -0.0103
     11 C           2.0000   -2.5000    0.0000 C.ar    1  UNL1       -0.0554
     12 C           3.7320   -2.5000    0.0000 C.ar    1  UNL1       -0.0554
     13 C           2.0000   -3.5000    0.0000 C.ar    1  UNL1       -0.0614
     14 C           3.7320   -3.5000    0.0000 C.ar    1  UNL1       -0.0614
     15 C           2.8660   -4.0000    0.0000 C.ar    1  UNL1       -0.0617
     16 H           5.6762    1.9174    0.0000 H       1  UNL1        0.0265
     17 H           6.0747    2.6077    0.0000 H       1  UNL1        0.0265
     18 H           4.3860    2.5826    0.0000 H       1  UNL1        0.0270
     19 H           3.9875    1.8923    0.0000 H       1  UNL1        0.0270
     20 H           5.2520    4.0826    0.0000 H       1  UNL1        0.0263
     21 H           4.8535    3.3923    0.0000 H       1  UNL1        0.0263
     22 H           4.8101    0.4174    0.0000 H       1  UNL1        0.0377
     23 H           5.2087    1.1077    0.0000 H       1  UNL1        0.0377
     24 H           6.6401    3.4631    0.0000 H       1  UNL1        0.0230
     25 H           6.8671    4.3100    0.0000 H       1  UNL1        0.0230
     26 H           6.0201    4.5369    0.0000 H       1  UNL1        0.0230
     27 H           2.6540   -0.4174    0.0000 H       1  UNL1        0.0749
     28 H           2.2554   -1.1077    0.0000 H       1  UNL1        0.0749
     29 H           1.4631   -2.1900    0.0000 H       1  UNL1        0.0621
     30 H           4.2690   -2.1900    0.0000 H       1  UNL1        0.0621
     31 H           1.4631   -3.8100    0.0000 H       1  UNL1        0.0618
     32 H           4.2690   -3.8100    0.0000 H       1  UNL1        0.0618
     33 H           2.8660   -4.6200    0.0000 H       1  UNL1        0.0618
@<TRIPOS>BOND
     1     1     8    1
     2     1     9    1
     3     2     8    2
     4     3     4    1
     5     3     5    1
     6     3    16    1
     7     3    17    1
     8     4     6    1
     9     4    18    1
    10     4    19    1
    11     5     7    1
    12     5    20    1
    13     5    21    1
    14     6     8    1
    15     6    22    1
    16     6    23    1
    17     7    24    1
    18     7    25    1
    19     7    26    1
    20     9    10    1
    21     9    27    1
    22     9    28    1
    23    10    11   ar
    24    10    12   ar
    25    11    13   ar
    26    11    29    1
    27    12    14   ar
    28    12    30    1
    29    13    15   ar
    30    13    31    1
    31    14    15   ar
    32    14    32    1
    33    15    33    1
