@<TRIPOS>MOLECULE
IMPHY009952
 38 38 0 0 0
SMALL
GASTEIGER

@<TRIPOS>ATOM
      1 O           5.4641   -2.7500    0.0000 O.2     1  UNL1       -0.2960
      2 C           4.5981    1.7500    0.0000 C.3     1  UNL1       -0.0078
      3 C           3.7320    1.2500    0.0000 C.3     1  UNL1       -0.0111
      4 C           5.4641    1.2500    0.0000 C.3     1  UNL1       -0.0431
      5 C           3.7320    0.2500    0.0000 C.3     1  UNL1       -0.0388
      6 C           4.5981   -0.2500    0.0000 C.3     1  UNL1       -0.0128
      7 C           5.4641    0.2500    0.0000 C.3     1  UNL1       -0.0453
      8 C           4.0981    2.6160    0.0000 C.3     1  UNL1       -0.0556
      9 C           2.8660    1.7500    0.0000 C.2     1  UNL1       -0.0758
     10 C           5.0981    2.6160    0.0000 C.2     1  UNL1       -0.0846
     11 C           4.5981   -1.2500    0.0000 C.2     1  UNL1       -0.0122
     12 C           2.0000    1.2500    0.0000 C.3     1  UNL1       -0.0437
     13 C           2.8660    2.7500    0.0000 C.2     1  UNL1       -0.0994
     14 C           6.0981    2.6160    0.0000 C.2     1  UNL1       -0.1021
     15 C           5.4641   -1.7500    0.0000 C.2     1  UNL1        0.1460
     16 C           3.7320   -1.7500    0.0000 C.2     1  UNL1       -0.0922
     17 H           3.7320    1.8700    0.0000 H       1  UNL1        0.0354
     18 H           6.0747    1.1423    0.0000 H       1  UNL1        0.0274
     19 H           5.6762    1.8326    0.0000 H       1  UNL1        0.0274
     20 H           3.1215    0.3577    0.0000 H       1  UNL1        0.0277
     21 H           3.5200   -0.3326    0.0000 H       1  UNL1        0.0277
     22 H           5.1350   -0.5600    0.0000 H       1  UNL1        0.0350
     23 H           5.6762   -0.3326    0.0000 H       1  UNL1        0.0271
     24 H           6.0747    0.3577    0.0000 H       1  UNL1        0.0271
     25 H           4.6350    2.9260    0.0000 H       1  UNL1        0.0238
     26 H           3.7881    3.1530    0.0000 H       1  UNL1        0.0238
     27 H           3.5611    2.3060    0.0000 H       1  UNL1        0.0238
     28 H           4.7881    3.1530    0.0000 H       1  UNL1        0.0572
     29 H           1.6900    1.7869    0.0000 H       1  UNL1        0.0274
     30 H           1.4631    0.9400    0.0000 H       1  UNL1        0.0274
     31 H           2.3100    0.7131    0.0000 H       1  UNL1        0.0274
     32 H           3.4030    3.0600    0.0000 H       1  UNL1        0.0534
     33 H           2.3291    3.0600    0.0000 H       1  UNL1        0.0534
     34 H           6.4081    2.0791    0.0000 H       1  UNL1        0.0532
     35 H           6.4081    3.1530    0.0000 H       1  UNL1        0.0532
     36 H           6.0010   -1.4400    0.0000 H       1  UNL1        0.1078
     37 H           3.1951   -1.4400    0.0000 H       1  UNL1        0.0539
     38 H           3.7320   -2.3700    0.0000 H       1  UNL1        0.0539
@<TRIPOS>BOND
     1     1    15    2
     2     2     3    1
     3     2     4    1
     4     2     8    1
     5     2    10    1
     6     3     5    1
     7     3     9    1
     8     3    17    1
     9     4     7    1
    10     4    18    1
    11     4    19    1
    12     5     6    1
    13     5    20    1
    14     5    21    1
    15     6     7    1
    16     6    11    1
    17     6    22    1
    18     7    23    1
    19     7    24    1
    20     8    25    1
    21     8    26    1
    22     8    27    1
    23     9    12    1
    24     9    13    2
    25    10    14    2
    26    10    28    1
    27    11    15    1
    28    11    16    2
    29    12    29    1
    30    12    30    1
    31    12    31    1
    32    13    32    1
    33    13    33    1
    34    14    34    1
    35    14    35    1
    36    15    36    1
    37    16    37    1
    38    16    38    1
