@<TRIPOS>MOLECULE
IMPHY017655
 40 41 0 0 0
SMALL
GASTEIGER

@<TRIPOS>ATOM
      1 O           6.7302    1.3573    0.0000 O.3     1  UNL1       -0.3650
      2 C           5.7638    1.6160    0.0000 C.3     1  UNL1        0.0935
      3 C           6.0226    0.6501    0.0000 C.3     1  UNL1        0.0884
      4 C           4.7979    1.8748    0.0000 C.3     1  UNL1       -0.0181
      5 C           5.3155   -0.0570    0.0000 C.3     1  UNL1       -0.0202
      6 C           5.5050    2.5820    0.0000 C.3     1  UNL1       -0.0333
      7 C           3.8320    1.6160    0.0000 C.3     1  UNL1       -0.0318
      8 C           5.3052   -1.0820    0.0000 C.3     1  UNL1       -0.0296
      9 C           4.4392   -1.5820    0.0000 C.2     1  UNL1       -0.0764
     10 C           3.5731    0.6501    0.0000 C.2     1  UNL1       -0.0849
     11 C           2.7071    0.1501    0.0000 C.2     1  UNL1       -0.0762
     12 C           3.5731   -1.0820    0.0000 C.2     1  UNL1       -0.0847
     13 C           2.2071   -0.7159    0.0000 C.3     1  UNL1       -0.0286
     14 C           2.7071   -1.5820    0.0000 C.3     1  UNL1       -0.0308
     15 C           4.4392   -2.5820    0.0000 C.3     1  UNL1       -0.0438
     16 C           2.0000    0.8572    0.0000 C.3     1  UNL1       -0.0438
     17 H           6.6236    0.0490    0.0000 H       1  UNL1        0.0625
     18 H           5.1535    2.3827    0.0000 H       1  UNL1        0.0297
     19 H           4.7979    1.2548    0.0000 H       1  UNL1        0.0297
     20 H           5.0073    0.4810    0.0000 H       1  UNL1        0.0294
     21 H           4.7156   -0.2134    0.0000 H       1  UNL1        0.0294
     22 H           6.1039    2.7424    0.0000 H       1  UNL1        0.0258
     23 H           5.3445    3.1808    0.0000 H       1  UNL1        0.0258
     24 H           4.9061    2.4215    0.0000 H       1  UNL1        0.0258
     25 H           3.7779    2.2337    0.0000 H       1  UNL1        0.0308
     26 H           3.2143    1.6701    0.0000 H       1  UNL1        0.0308
     27 H           5.5153   -1.6653    0.0000 H       1  UNL1        0.0311
     28 H           5.9165   -0.9784    0.0000 H       1  UNL1        0.0311
     29 H           4.0650    0.2727    0.0000 H       1  UNL1        0.0572
     30 H           3.5731   -0.4620    0.0000 H       1  UNL1        0.0572
     31 H           1.7322   -0.3174    0.0000 H       1  UNL1        0.0313
     32 H           1.7322   -1.1144    0.0000 H       1  UNL1        0.0313
     33 H           2.1702   -1.8920    0.0000 H       1  UNL1        0.0310
     34 H           3.0171   -2.1189    0.0000 H       1  UNL1        0.0310
     35 H           3.8192   -2.5820    0.0000 H       1  UNL1        0.0274
     36 H           4.4392   -3.2020    0.0000 H       1  UNL1        0.0274
     37 H           5.0592   -2.5820    0.0000 H       1  UNL1        0.0274
     38 H           2.4384    1.2956    0.0000 H       1  UNL1        0.0274
     39 H           1.5616    1.2956    0.0000 H       1  UNL1        0.0274
     40 H           1.5616    0.4188    0.0000 H       1  UNL1        0.0274
@<TRIPOS>BOND
     1     1     2    1
     2     1     3    1
     3     2     3    1
     4     2     4    1
     5     2     6    1
     6     3     5    1
     7     3    17    1
     8     4     7    1
     9     4    18    1
    10     4    19    1
    11     5     8    1
    12     5    20    1
    13     5    21    1
    14     6    22    1
    15     6    23    1
    16     6    24    1
    17     7    10    1
    18     7    25    1
    19     7    26    1
    20     8     9    1
    21     8    27    1
    22     8    28    1
    23     9    12    2
    24     9    15    1
    25    10    11    2
    26    10    29    1
    27    11    13    1
    28    11    16    1
    29    12    14    1
    30    12    30    1
    31    13    14    1
    32    13    31    1
    33    13    32    1
    34    14    33    1
    35    14    34    1
    36    15    35    1
    37    15    36    1
    38    15    37    1
    39    16    38    1
    40    16    39    1
    41    16    40    1
