@<TRIPOS>MOLECULE
IMPHY012428
 50 52 0 0 0
SMALL
GASTEIGER

@<TRIPOS>ATOM
      1 CL          4.2463   -4.4862    0.0000 Cl      1  UNL1       -0.1224
      2 O           3.7230   -2.5134    0.0000 O.3     1  UNL1       -0.4569
      3 O           5.4378   -4.4086    0.0000 O.3     1  UNL1       -0.3844
      4 O           7.0268   -4.5019    0.0000 O.3     1  UNL1       -0.3889
      5 O           4.5447    0.6520    0.0000 O.3     1  UNL1       -0.4570
      6 O           2.0000   -2.0812    0.0000 O.2     1  UNL1       -0.2453
      7 O           6.1053    1.4035    0.0000 O.2     1  UNL1       -0.2452
      8 O           4.8036    4.1064    0.0000 O.3     1  UNL1       -0.3902
      9 C           5.4786   -2.4396    0.0000 C.3     1  UNL1        0.0358
     10 C           6.3796   -2.0057    0.0000 C.3     1  UNL1       -0.0086
     11 C           5.6146   -3.4243    0.0000 C.3     1  UNL1        0.1118
     12 C           4.5777   -2.0057    0.0000 C.3     1  UNL1        0.1198
     13 C           6.5929   -3.6010    0.0000 C.3     1  UNL1        0.0859
     14 C           7.0647   -2.7260    0.0000 C.3     1  UNL1       -0.0171
     15 C           4.3551   -1.0308    0.0000 C.3     1  UNL1        0.0651
     16 C           6.6021   -1.0308    0.0000 C.2     1  UNL1       -0.0695
     17 C           4.9786   -0.2489    0.0000 C.3     1  UNL1        0.1174
     18 C           5.9786   -0.2489    0.0000 C.3     1  UNL1        0.0063
     19 C           4.6239   -3.5603    0.0000 C.3     1  UNL1        0.0542
     20 C           3.3648   -0.9442    0.0000 C.2     1  UNL1        0.0396
     21 C           2.9749   -1.8587    0.0000 C.2     1  UNL1        0.3354
     22 C           7.5770   -0.8083    0.0000 C.2     1  UNL1       -0.0991
     23 C           2.8504   -0.0867    0.0000 C.2     1  UNL1       -0.0882
     24 C           5.1081    1.4783    0.0000 C.2     1  UNL1        0.3371
     25 C           4.6742    2.3792    0.0000 C.2     1  UNL1        0.0546
     26 C           5.2375    3.2055    0.0000 C.3     1  UNL1        0.0754
     27 C           3.6770    2.4540    0.0000 C.2     1  UNL1       -0.0865
     28 H           4.7916   -2.9401    0.0000 H       1  UNL1        0.0372
     29 H           7.1993   -1.7806    0.0000 H       1  UNL1        0.0351
     30 H           4.6147   -2.8549    0.0000 H       1  UNL1        0.0745
     31 H           7.2127   -3.6152    0.0000 H       1  UNL1        0.0622
     32 H           7.5765   -3.0760    0.0000 H       1  UNL1        0.0297
     33 H           7.4666   -2.2538    0.0000 H       1  UNL1        0.0297
     34 H           5.1838   -1.2199    0.0000 H       1  UNL1        0.0423
     35 H           4.3625   -0.1795    0.0000 H       1  UNL1        0.0744
     36 H           6.5372    0.0201    0.0000 H       1  UNL1        0.0346
     37 H           5.8407    0.3555    0.0000 H       1  UNL1        0.0346
     38 H           4.6476   -2.9407    0.0000 H       1  UNL1        0.0459
     39 H           4.0179   -3.4294    0.0000 H       1  UNL1        0.0459
     40 H           4.8545   -4.6187    0.0000 H       1  UNL1        0.2103
     41 H           7.6450   -4.5483    0.0000 H       1  UNL1        0.2099
     42 H           7.9988   -1.2628    0.0000 H       1  UNL1        0.0535
     43 H           7.7598   -0.2158    0.0000 H       1  UNL1        0.0535
     44 H           3.1514    0.4554    0.0000 H       1  UNL1        0.0540
     45 H           2.2305   -0.0970    0.0000 H       1  UNL1        0.0540
     46 H           5.6813    2.7726    0.0000 H       1  UNL1        0.0609
     47 H           5.7409    3.5674    0.0000 H       1  UNL1        0.0609
     48 H           3.4080    3.0126    0.0000 H       1  UNL1        0.0540
     49 H           3.3277    1.9417    0.0000 H       1  UNL1        0.0540
     50 H           5.1529    4.6187    0.0000 H       1  UNL1        0.2099
@<TRIPOS>BOND
     1     1    19    1
     2     2    12    1
     3     2    21    1
     4    11     3    1
     5     3    40    1
     6    13     4    1
     7     4    41    1
     8    17     5    1
     9     5    24    1
    10     6    21    2
    11     7    24    2
    12     8    26    1
    13     8    50    1
    14     9    10    1
    15     9    11    1
    16     9    12    1
    17     9    28    1
    18    10    14    1
    19    10    16    1
    20    10    29    1
    21    11    13    1
    22    11    19    1
    23    12    15    1
    24    12    30    1
    25    13    14    1
    26    13    31    1
    27    14    32    1
    28    14    33    1
    29    15    17    1
    30    15    20    1
    31    15    34    1
    32    16    18    1
    33    16    22    2
    34    17    18    1
    35    17    35    1
    36    18    36    1
    37    18    37    1
    38    19    38    1
    39    19    39    1
    40    20    21    1
    41    20    23    2
    42    22    42    1
    43    22    43    1
    44    23    44    1
    45    23    45    1
    46    24    25    1
    47    25    26    1
    48    25    27    2
    49    26    46    1
    50    26    47    1
    51    27    48    1
    52    27    49    1
