@<TRIPOS>MOLECULE
IMPHY014150
 44 44 0 0 0
SMALL
GASTEIGER

@<TRIPOS>ATOM
      1 O          10.8312    0.3840    0.0000 O.3     1  UNL1       -0.3673
      2 O           5.1350   -1.7500    0.0000 O.2     1  UNL1       -0.2829
      3 O           2.5369   -0.2500    0.0000 O.3     1  UNL1       -0.3946
      4 C          11.3312    1.2500    0.0000 C.3     1  UNL1        0.0862
      5 C          10.3312    1.2500    0.0000 C.3     1  UNL1        0.0960
      6 C          12.1972    1.7500    0.0000 C.3     1  UNL1       -0.0241
      7 C          13.0632    1.2500    0.0000 C.3     1  UNL1       -0.0506
      8 C           9.4651    1.7500    0.0000 C.3     1  UNL1        0.0388
      9 C          13.9292    1.7500    0.0000 C.3     1  UNL1       -0.0530
     10 C          14.7953    1.2500    0.0000 C.3     1  UNL1       -0.0531
     11 C          15.6613    1.7500    0.0000 C.3     1  UNL1       -0.0533
     12 C           8.5991    1.2500    0.0000 C.1     1  UNL1       -0.0858
     13 C          16.5273    1.2500    0.0000 C.3     1  UNL1       -0.0559
     14 C          17.3933    1.7500    0.0000 C.3     1  UNL1       -0.0653
     15 C           7.7331    0.7500    0.0000 C.1     1  UNL1       -0.0143
     16 C           6.8671    0.2500    0.0000 C.1     1  UNL1       -0.0068
     17 C           6.0010   -0.2500    0.0000 C.1     1  UNL1       -0.0146
     18 C           5.1350   -0.7500    0.0000 C.2     1  UNL1        0.2087
     19 C           4.2690   -0.2500    0.0000 C.3     1  UNL1        0.0414
     20 C           3.4030   -0.7500    0.0000 C.3     1  UNL1        0.0518
     21 H          11.7696    0.8116    0.0000 H       1  UNL1        0.0622
     22 H           9.8928    0.8116    0.0000 H       1  UNL1        0.0631
     23 H          12.5957    2.2250    0.0000 H       1  UNL1        0.0291
     24 H          11.7987    2.2250    0.0000 H       1  UNL1        0.0291
     25 H          12.6647    0.7751    0.0000 H       1  UNL1        0.0266
     26 H          13.4617    0.7751    0.0000 H       1  UNL1        0.0266
     27 H           9.8637    2.2250    0.0000 H       1  UNL1        0.0424
     28 H           9.0666    2.2250    0.0000 H       1  UNL1        0.0424
     29 H          14.3278    2.2250    0.0000 H       1  UNL1        0.0265
     30 H          13.5307    2.2250    0.0000 H       1  UNL1        0.0265
     31 H          14.3967    0.7751    0.0000 H       1  UNL1        0.0265
     32 H          15.1938    0.7751    0.0000 H       1  UNL1        0.0265
     33 H          16.0598    2.2250    0.0000 H       1  UNL1        0.0265
     34 H          15.2628    2.2250    0.0000 H       1  UNL1        0.0265
     35 H          16.1288    0.7751    0.0000 H       1  UNL1        0.0263
     36 H          16.9258    0.7751    0.0000 H       1  UNL1        0.0263
     37 H          17.7033    1.2131    0.0000 H       1  UNL1        0.0230
     38 H          17.9303    2.0600    0.0000 H       1  UNL1        0.0230
     39 H          17.0833    2.2869    0.0000 H       1  UNL1        0.0230
     40 H           4.6675    0.2249    0.0000 H       1  UNL1        0.0374
     41 H           3.8705    0.2249    0.0000 H       1  UNL1        0.0374
     42 H           3.0044   -1.2250    0.0000 H       1  UNL1        0.0561
     43 H           3.8015   -1.2250    0.0000 H       1  UNL1        0.0561
     44 H           2.0000   -0.5600    0.0000 H       1  UNL1        0.2094
@<TRIPOS>BOND
     1     1     4    1
     2     1     5    1
     3     2    18    2
     4     3    20    1
     5     3    44    1
     6     4     5    1
     7     4     6    1
     8     4    21    1
     9     5     8    1
    10     5    22    1
    11     6     7    1
    12     6    23    1
    13     6    24    1
    14     7     9    1
    15     7    25    1
    16     7    26    1
    17     8    12    1
    18     8    27    1
    19     8    28    1
    20     9    10    1
    21     9    29    1
    22     9    30    1
    23    10    11    1
    24    10    31    1
    25    10    32    1
    26    11    13    1
    27    11    33    1
    28    11    34    1
    29    12    15    3
    30    13    14    1
    31    13    35    1
    32    13    36    1
    33    14    37    1
    34    14    38    1
    35    14    39    1
    36    15    16    1
    37    16    17    3
    38    17    18    1
    39    18    19    1
    40    19    20    1
    41    19    40    1
    42    19    41    1
    43    20    42    1
    44    20    43    1
