@<TRIPOS>MOLECULE
IMPHY011158
 86 89 0 0 0
SMALL
GASTEIGER

@<TRIPOS>ATOM
      1 O           6.0010    1.7741    0.0000 O.3     1  UNL1       -0.4577
      2 O           5.5010    6.0359    0.0000 O.2     1  UNL1       -0.4705
      3 O           4.0010    5.1699    0.0000 O.3     1  UNL1       -0.3575
      4 O           8.5010    6.0359    0.0000 O.3     1  UNL1       -0.4646
      5 O           6.8671   -2.7259    0.0000 O.3     1  UNL1       -0.3093
      6 O           6.0010   -1.2259    0.0000 O.2     1  UNL1       -0.4699
      7 O           8.5010    4.3039    0.0000 O.2     1  UNL1       -0.2452
      8 O           7.7331    1.7741    0.0000 O.2     1  UNL1       -0.2452
      9 O           5.1350   -2.7259    0.0000 O.3     1  UNL1       -0.3404
     10 O           6.8671   -4.7259    0.0000 O.3     1  UNL1       -0.3841
     11 O           5.1350   -5.7259    0.0000 O.3     1  UNL1       -0.3864
     12 O           3.4030   -4.7259    0.0000 O.3     1  UNL1       -0.3865
     13 O          10.3312    0.2741    0.0000 O.3     1  UNL1       -0.3545
     14 O           9.4651   -1.2259    0.0000 O.3     1  UNL1       -0.3545
     15 O           2.5369   -3.2259    0.0000 O.3     1  UNL1       -0.3924
     16 C           5.5010    4.3039    0.0000 C.3     1  UNL1        0.0345
     17 C           5.1963    3.3577    0.0000 C.3     1  UNL1        0.0024
     18 C           6.5010    4.3039    0.0000 C.3     1  UNL1        0.0060
     19 C           6.0010    2.7741    0.0000 C.3     1  UNL1        0.1070
     20 C           6.8058    3.3577    0.0000 C.3     1  UNL1       -0.0078
     21 C           5.0010    5.1699    0.0000 C.3     1  UNL1        0.2022
     22 C           7.0010    5.1699    0.0000 C.2     1  UNL1        0.0744
     23 C           4.2458    3.0470    0.0000 C.3     1  UNL1       -0.0586
     24 C           6.5010    6.0359    0.0000 C.2     1  UNL1        0.0981
     25 C           8.0010    5.1699    0.0000 C.2     1  UNL1        0.3381
     26 C           6.8671    1.2741    0.0000 C.2     1  UNL1        0.3386
     27 C           7.7331   -0.2259    0.0000 C.3     1  UNL1        0.0103
     28 C           6.8671    0.2741    0.0000 C.2     1  UNL1        0.0747
     29 C           7.7331   -1.2259    0.0000 C.3     1  UNL1        0.0468
     30 C           6.8671   -1.7259    0.0000 C.3     1  UNL1        0.2102
     31 C           8.5991    0.2741    0.0000 C.3     1  UNL1        0.0062
     32 C           6.0010   -0.2259    0.0000 C.2     1  UNL1        0.0981
     33 C           6.0010   -3.2259    0.0000 C.3     1  UNL1        0.1918
     34 C           6.0010   -4.2259    0.0000 C.3     1  UNL1        0.1342
     35 C           5.1350   -4.7259    0.0000 C.3     1  UNL1        0.1141
     36 C           4.2690   -4.2259    0.0000 C.3     1  UNL1        0.1119
     37 C           4.2690   -3.2259    0.0000 C.3     1  UNL1        0.1130
     38 C           8.5991   -1.7259    0.0000 C.2     1  UNL1       -0.0816
     39 C           9.4651   -0.2259    0.0000 C.3     1  UNL1        0.1590
     40 C           3.4030   -2.7259    0.0000 C.3     1  UNL1        0.0730
     41 C           9.5010    6.0359    0.0000 C.3     1  UNL1        0.0820
     42 C           8.5991   -2.7259    0.0000 C.2     1  UNL1       -0.1022
     43 C          10.3312   -1.7259    0.0000 C.3     1  UNL1        0.0394
     44 C          11.1972   -0.2259    0.0000 C.3     1  UNL1        0.0394
     45 H           4.6558    4.2139    0.0000 H       1  UNL1        0.0371
     46 H           5.1001    2.7452    0.0000 H       1  UNL1        0.0339
     47 H           7.3463    4.2139    0.0000 H       1  UNL1        0.0358
     48 H           6.5533    2.4924    0.0000 H       1  UNL1        0.0737
     49 H           7.1150    2.8203    0.0000 H       1  UNL1        0.0307
     50 H           7.3727    3.6087    0.0000 H       1  UNL1        0.0307
     51 H           4.6910    4.6330    0.0000 H       1  UNL1        0.1056
     52 H           4.0532    3.6363    0.0000 H       1  UNL1        0.0234
     53 H           3.6565    2.8544    0.0000 H       1  UNL1        0.0234
     54 H           4.4384    2.4577    0.0000 H       1  UNL1        0.0234
     55 H           6.8110    6.5729    0.0000 H       1  UNL1        0.1029
     56 H           3.6910    5.7068    0.0000 H       1  UNL1        0.2135
     57 H           7.7331    0.3941    0.0000 H       1  UNL1        0.0361
     58 H           8.2700   -0.9159    0.0000 H       1  UNL1        0.0410
     59 H           7.4040   -2.0359    0.0000 H       1  UNL1        0.1062
     60 H           8.9976    0.7490    0.0000 H       1  UNL1        0.0320
     61 H           8.2006    0.7490    0.0000 H       1  UNL1        0.0320
     62 H           6.0010   -2.6059    0.0000 H       1  UNL1        0.0939
     63 H           5.4641    0.0841    0.0000 H       1  UNL1        0.1029
     64 H           6.0010   -4.8459    0.0000 H       1  UNL1        0.0671
     65 H           4.5981   -5.0359    0.0000 H       1  UNL1        0.0648
     66 H           4.2690   -4.8459    0.0000 H       1  UNL1        0.0647
     67 H           4.2690   -2.6059    0.0000 H       1  UNL1        0.0647
     68 H           9.1360   -1.4159    0.0000 H       1  UNL1        0.0571
     69 H          10.0021   -0.5359    0.0000 H       1  UNL1        0.0909
     70 H           3.8015   -2.2510    0.0000 H       1  UNL1        0.0584
     71 H           3.0044   -2.2510    0.0000 H       1  UNL1        0.0584
     72 H           9.5010    5.4159    0.0000 H       1  UNL1        0.0661
     73 H          10.1210    6.0359    0.0000 H       1  UNL1        0.0661
     74 H           9.5010    6.6559    0.0000 H       1  UNL1        0.0661
     75 H           7.4040   -4.4159    0.0000 H       1  UNL1        0.2101
     76 H           8.0622   -3.0359    0.0000 H       1  UNL1        0.0532
     77 H           9.1360   -3.0359    0.0000 H       1  UNL1        0.0532
     78 H           5.6720   -6.0359    0.0000 H       1  UNL1        0.2100
     79 H           3.4030   -5.3459    0.0000 H       1  UNL1        0.2100
     80 H           2.0000   -2.9159    0.0000 H       1  UNL1        0.2095
     81 H          10.8872   -0.7629    0.0000 H       1  UNL1        0.0525
     82 H          11.7341   -0.5359    0.0000 H       1  UNL1        0.0525
     83 H          11.5072    0.3110    0.0000 H       1  UNL1        0.0525
     84 H          10.0212   -2.2629    0.0000 H       1  UNL1        0.0525
     85 H          10.8681   -2.0359    0.0000 H       1  UNL1        0.0525
     86 H          10.6412   -1.1890    0.0000 H       1  UNL1        0.0525
@<TRIPOS>BOND
     1    19     1    1
     2     1    26    1
     3     2    21    1
     4     2    24    1
     5    21     3    1
     6     3    56    1
     7     4    25    1
     8     4    41    1
     9    30     5    1
    10    33     5    1
    11     6    30    1
    12     6    32    1
    13     7    25    2
    14     8    26    2
    15     9    33    1
    16     9    37    1
    17    34    10    1
    18    10    75    1
    19    35    11    1
    20    11    78    1
    21    36    12    1
    22    12    79    1
    23    13    39    1
    24    13    44    1
    25    14    39    1
    26    14    43    1
    27    15    40    1
    28    15    80    1
    29    16    17    1
    30    16    18    1
    31    16    21    1
    32    16    45    1
    33    17    19    1
    34    17    23    1
    35    17    46    1
    36    18    20    1
    37    18    22    1
    38    18    47    1
    39    19    20    1
    40    19    48    1
    41    20    49    1
    42    20    50    1
    43    21    51    1
    44    22    24    2
    45    22    25    1
    46    23    52    1
    47    23    53    1
    48    23    54    1
    49    24    55    1
    50    26    28    1
    51    27    28    1
    52    27    29    1
    53    27    31    1
    54    27    57    1
    55    28    32    2
    56    29    30    1
    57    29    38    1
    58    29    58    1
    59    30    59    1
    60    31    39    1
    61    31    60    1
    62    31    61    1
    63    32    63    1
    64    33    34    1
    65    33    62    1
    66    34    35    1
    67    34    64    1
    68    35    36    1
    69    35    65    1
    70    36    37    1
    71    36    66    1
    72    37    40    1
    73    37    67    1
    74    38    42    2
    75    38    68    1
    76    39    69    1
    77    40    70    1
    78    40    71    1
    79    41    72    1
    80    41    73    1
    81    41    74    1
    82    42    76    1
    83    42    77    1
    84    43    84    1
    85    43    85    1
    86    43    86    1
    87    44    81    1
    88    44    82    1
    89    44    83    1
