@<TRIPOS>MOLECULE
IMPHY016740
 54 53 0 0 0
SMALL
GASTEIGER

@<TRIPOS>ATOM
      1 O          13.2583   -0.5950    0.0000 O.3     1  UNL1       -0.3912
      2 O          15.8564    0.9050    0.0000 O.3     1  UNL1       -0.4679
      3 O          14.9904   -0.5950    0.0000 O.2     1  UNL1       -0.2508
      4 C           8.9282    0.9050    0.0000 C.3     1  UNL1       -0.0531
      5 C           8.0622    0.4050    0.0000 C.3     1  UNL1       -0.0531
      6 C           9.7942    0.4050    0.0000 C.3     1  UNL1       -0.0531
      7 C           7.1962    0.9050    0.0000 C.3     1  UNL1       -0.0531
      8 C          10.6603    0.9050    0.0000 C.3     1  UNL1       -0.0530
      9 C           6.3301    0.4050    0.0000 C.3     1  UNL1       -0.0531
     10 C          11.5263    0.4050    0.0000 C.3     1  UNL1       -0.0507
     11 C           5.4641    0.9050    0.0000 C.3     1  UNL1       -0.0531
     12 C          12.3923    0.9050    0.0000 C.3     1  UNL1       -0.0263
     13 C           4.5981    0.4050    0.0000 C.3     1  UNL1       -0.0531
     14 C          13.2583    0.4050    0.0000 C.3     1  UNL1        0.0653
     15 C           3.7320    0.9050    0.0000 C.3     1  UNL1       -0.0533
     16 C          14.1244    0.9050    0.0000 C.3     1  UNL1        0.0708
     17 C           2.8660    0.4050    0.0000 C.3     1  UNL1       -0.0559
     18 C           2.0000    0.9050    0.0000 C.3     1  UNL1       -0.0653
     19 C          14.9904    0.4050    0.0000 C.2     1  UNL1        0.3093
     20 C          16.7224    0.4050    0.0000 C.3     1  UNL1        0.0817
     21 H           9.3267    1.3800    0.0000 H       1  UNL1        0.0265
     22 H           8.5297    1.3800    0.0000 H       1  UNL1        0.0265
     23 H           7.6636   -0.0699    0.0000 H       1  UNL1        0.0265
     24 H           8.4607   -0.0699    0.0000 H       1  UNL1        0.0265
     25 H           9.3957   -0.0699    0.0000 H       1  UNL1        0.0265
     26 H          10.1928   -0.0699    0.0000 H       1  UNL1        0.0265
     27 H           7.5947    1.3800    0.0000 H       1  UNL1        0.0265
     28 H           6.7976    1.3800    0.0000 H       1  UNL1        0.0265
     29 H          11.0588    1.3800    0.0000 H       1  UNL1        0.0265
     30 H          10.2617    1.3800    0.0000 H       1  UNL1        0.0265
     31 H           5.9316   -0.0699    0.0000 H       1  UNL1        0.0265
     32 H           6.7287   -0.0699    0.0000 H       1  UNL1        0.0265
     33 H          11.1278   -0.0699    0.0000 H       1  UNL1        0.0266
     34 H          11.9248   -0.0699    0.0000 H       1  UNL1        0.0266
     35 H           5.8626    1.3800    0.0000 H       1  UNL1        0.0265
     36 H           5.0656    1.3800    0.0000 H       1  UNL1        0.0265
     37 H          12.7908    1.3800    0.0000 H       1  UNL1        0.0290
     38 H          11.9938    1.3800    0.0000 H       1  UNL1        0.0290
     39 H           4.1996   -0.0699    0.0000 H       1  UNL1        0.0265
     40 H           4.9966   -0.0699    0.0000 H       1  UNL1        0.0265
     41 H          13.7953    0.0950    0.0000 H       1  UNL1        0.0598
     42 H           4.1306    1.3800    0.0000 H       1  UNL1        0.0265
     43 H           3.3335    1.3800    0.0000 H       1  UNL1        0.0265
     44 H          14.5229    1.3800    0.0000 H       1  UNL1        0.0403
     45 H          13.7258    1.3800    0.0000 H       1  UNL1        0.0403
     46 H           2.4675   -0.0699    0.0000 H       1  UNL1        0.0263
     47 H           3.2646   -0.0699    0.0000 H       1  UNL1        0.0263
     48 H           2.3100    1.4419    0.0000 H       1  UNL1        0.0230
     49 H           1.4631    1.2150    0.0000 H       1  UNL1        0.0230
     50 H           1.6900    0.3681    0.0000 H       1  UNL1        0.0230
     51 H          12.7214   -0.9050    0.0000 H       1  UNL1        0.2098
     52 H          16.4124   -0.1319    0.0000 H       1  UNL1        0.0661
     53 H          17.2594    0.0950    0.0000 H       1  UNL1        0.0661
     54 H          17.0324    0.9419    0.0000 H       1  UNL1        0.0661
@<TRIPOS>BOND
     1     1    14    1
     2     1    51    1
     3     2    19    1
     4     2    20    1
     5     3    19    2
     6     4     5    1
     7     4     6    1
     8     4    21    1
     9     4    22    1
    10     5     7    1
    11     5    23    1
    12     5    24    1
    13     6     8    1
    14     6    25    1
    15     6    26    1
    16     7     9    1
    17     7    27    1
    18     7    28    1
    19     8    10    1
    20     8    29    1
    21     8    30    1
    22     9    11    1
    23     9    31    1
    24     9    32    1
    25    10    12    1
    26    10    33    1
    27    10    34    1
    28    11    13    1
    29    11    35    1
    30    11    36    1
    31    12    14    1
    32    12    37    1
    33    12    38    1
    34    13    15    1
    35    13    39    1
    36    13    40    1
    37    14    16    1
    38    14    41    1
    39    15    17    1
    40    15    42    1
    41    15    43    1
    42    16    19    1
    43    16    44    1
    44    16    45    1
    45    17    18    1
    46    17    46    1
    47    17    47    1
    48    18    48    1
    49    18    49    1
    50    18    50    1
    51    20    52    1
    52    20    53    1
    53    20    54    1
