@<TRIPOS>MOLECULE
IMPHY004366
 40 42 0 0 0
SMALL
GASTEIGER

@<TRIPOS>ATOM
      1 O           5.1456   -1.1773    0.0000 O.3     1  UNL1       -0.3690
      2 O           2.5369    2.3472    0.0000 O.3     1  UNL1       -0.4914
      3 O           2.5369    0.3472    0.0000 O.3     1  UNL1       -0.5033
      4 O           9.4581   -2.7273    0.0000 O.3     1  UNL1       -0.5068
      5 N           6.9350    0.8264    0.0000 N.ar    1  UNL1       -0.2563
      6 C           6.0174   -0.6874    0.0000 C.3     1  UNL1        0.1256
      7 C           6.0290    0.3126    0.0000 C.ar    1  UNL1        0.0821
      8 C           5.1350    0.8472    0.0000 C.ar    1  UNL1        0.0100
      9 C           5.1350    1.8472    0.0000 C.ar    1  UNL1       -0.0110
     10 C           6.8776   -1.1973    0.0000 C.ar    1  UNL1       -0.0128
     11 C           4.2690    0.3472    0.0000 C.ar    1  UNL1       -0.0070
     12 C           4.2690    2.3472    0.0000 C.ar    1  UNL1       -0.0085
     13 C           6.0290    2.3819    0.0000 C.ar    1  UNL1       -0.0357
     14 C           3.4030    0.8472    0.0000 C.ar    1  UNL1        0.1591
     15 C           3.4030    1.8472    0.0000 C.ar    1  UNL1        0.1619
     16 C           6.8660   -2.1973    0.0000 C.ar    1  UNL1       -0.0523
     17 C           7.7493   -0.7074    0.0000 C.ar    1  UNL1       -0.0523
     18 C           6.9350    1.8680    0.0000 C.ar    1  UNL1        0.0286
     19 C           7.7262   -2.7072    0.0000 C.ar    1  UNL1       -0.0198
     20 C           8.6095   -1.2174    0.0000 C.ar    1  UNL1       -0.0198
     21 C           8.5980   -2.2173    0.0000 C.ar    1  UNL1        0.1169
     22 C           5.1341   -2.1772    0.0000 C.3     1  UNL1        0.0377
     23 C           2.5369    3.3472    0.0000 C.3     1  UNL1        0.0790
     24 H           6.0102   -1.3073    0.0000 H       1  UNL1        0.0712
     25 H           4.2690   -0.2728    0.0000 H       1  UNL1        0.0662
     26 H           4.2690    2.9672    0.0000 H       1  UNL1        0.0661
     27 H           6.0218    3.0019    0.0000 H       1  UNL1        0.0639
     28 H           6.3255   -2.5010    0.0000 H       1  UNL1        0.0622
     29 H           7.7565   -0.0874    0.0000 H       1  UNL1        0.0622
     30 H           7.4708    2.1801    0.0000 H       1  UNL1        0.0830
     31 H           7.7190   -3.3272    0.0000 H       1  UNL1        0.0654
     32 H           9.1500   -0.9136    0.0000 H       1  UNL1        0.0654
     33 H           4.5141   -2.1701    0.0000 H       1  UNL1        0.0524
     34 H           5.1269   -2.7972    0.0000 H       1  UNL1        0.0524
     35 H           5.7540   -2.1844    0.0000 H       1  UNL1        0.0524
     36 H           2.0000    0.6572    0.0000 H       1  UNL1        0.2923
     37 H           3.1569    3.3472    0.0000 H       1  UNL1        0.0660
     38 H           2.5369    3.9672    0.0000 H       1  UNL1        0.0660
     39 H           1.9169    3.3472    0.0000 H       1  UNL1        0.0660
     40 H           9.4510   -3.3472    0.0000 H       1  UNL1        0.2921
@<TRIPOS>BOND
     1     6     1    1
     2     1    22    1
     3     2    15    1
     4     2    23    1
     5     3    14    1
     6     3    36    1
     7     4    21    1
     8     4    40    1
     9     5     7   ar
    10     5    18   ar
    11     6     7    1
    12     6    10    1
    13     6    24    1
    14     7     8   ar
    15     8     9   ar
    16     8    11   ar
    17     9    12   ar
    18     9    13   ar
    19    10    16   ar
    20    10    17   ar
    21    11    14   ar
    22    11    25    1
    23    12    15   ar
    24    12    26    1
    25    13    18   ar
    26    13    27    1
    27    14    15   ar
    28    16    19   ar
    29    16    28    1
    30    17    20   ar
    31    17    29    1
    32    18    30    1
    33    19    21   ar
    34    19    31    1
    35    20    21   ar
    36    20    32    1
    37    22    33    1
    38    22    34    1
    39    22    35    1
    40    23    37    1
    41    23    38    1
    42    23    39    1
