@<TRIPOS>MOLECULE
IMPHY015706
 125 126 0 0 0
SMALL
GASTEIGER

@<TRIPOS>ATOM
      1 O           6.0010    3.6362    0.0000 O.3     1  UNL1       -0.3408
      2 O           7.7331    5.6362    0.0000 O.3     1  UNL1       -0.3417
      3 O           5.1350    5.1362    0.0000 O.3     1  UNL1       -0.3412
      4 O           7.7331    2.6362    0.0000 O.3     1  UNL1       -0.3601
      5 O           9.4651    5.6362    0.0000 O.3     1  UNL1       -0.3656
      6 O           2.5369    3.6362    0.0000 O.3     1  UNL1       -0.3871
      7 O           2.5369    5.6362    0.0000 O.3     1  UNL1       -0.3865
      8 O           6.0010    6.6362    0.0000 O.3     1  UNL1       -0.3924
      9 O           3.4030    7.1362    0.0000 O.3     1  UNL1       -0.3924
     10 O           2.5369    2.6362    0.0000 O.2     1  UNL1       -0.2761
     11 O           6.7332    0.9041    0.0000 O.2     1  UNL1       -0.2730
     12 O           9.2331   -1.6940    0.0000 O.2     1  UNL1       -0.2738
     13 O           6.7331   -4.2920    0.0000 O.2     1  UNL1       -0.2740
     14 O          11.2331   -3.4260    0.0000 O.2     1  UNL1       -0.2758
     15 O          12.2331   -6.8901    0.0000 O.2     1  UNL1       -0.2738
     16 O          15.7331   -7.7562    0.0000 O.3     1  UNL1       -0.4793
     17 OXT        15.7331   -6.0241    0.0000 O.2     1  UNL1       -0.2489
     18 N           9.4651    3.6362    0.0000 N.3     1  UNL1       -0.3071
     19 N           4.2690    2.6362    0.0000 N.am    1  UNL1       -0.3053
     20 N           8.2331    0.0381    0.0000 N.am    1  UNL1       -0.3021
     21 N           7.7331   -2.5600    0.0000 N.am    1  UNL1       -0.3025
     22 N          11.2331   -5.1581    0.0000 N.am    1  UNL1       -0.3040
     23 N           8.2331   -5.1581    0.0000 N.am    1  UNL1       -0.3278
     24 N          13.7331   -6.0241    0.0000 N.am    1  UNL1       -0.3010
     25 NZ         15.7331   -2.5600    0.0000 N.3     1  UNL1       -0.3300
     26 C           6.8671    4.1362    0.0000 C.3     1  UNL1        0.1177
     27 C           7.7331    3.6362    0.0000 C.3     1  UNL1        0.1083
     28 C           8.5991    4.1362    0.0000 C.3     1  UNL1        0.0879
     29 C           6.8671    5.1362    0.0000 C.3     1  UNL1        0.1133
     30 C           5.1350    4.1362    0.0000 C.3     1  UNL1        0.1808
     31 C           4.2690    3.6362    0.0000 C.3     1  UNL1        0.1023
     32 C           8.5991    5.1362    0.0000 C.3     1  UNL1        0.1746
     33 C           3.4030    4.1362    0.0000 C.3     1  UNL1        0.1065
     34 C           3.4030    5.1362    0.0000 C.3     1  UNL1        0.1112
     35 C           4.2690    5.6362    0.0000 C.3     1  UNL1        0.1130
     36 C           6.0010    5.6362    0.0000 C.3     1  UNL1        0.0730
     37 C           4.2690    6.6362    0.0000 C.3     1  UNL1        0.0730
     38 C           8.2331    1.7701    0.0000 C.3     1  UNL1        0.1321
     39 C          10.3312    4.1362    0.0000 C.3     1  UNL1       -0.0065
     40 C           3.4030    2.1362    0.0000 C.2     1  UNL1        0.2104
     41 C           9.2331    1.7701    0.0000 C.3     1  UNL1       -0.0301
     42 C           7.7331    0.9041    0.0000 C.2     1  UNL1        0.2422
     43 C          11.1972    3.6362    0.0000 C.3     1  UNL1       -0.0526
     44 C           3.4030    1.1362    0.0000 C.3     1  UNL1        0.0122
     45 C           7.7331   -0.8279    0.0000 C.3     1  UNL1        0.0966
     46 C           6.7331   -0.8279    0.0000 C.3     1  UNL1       -0.0381
     47 C           8.2331   -1.6940    0.0000 C.2     1  UNL1        0.2337
     48 C           8.2331   -3.4260    0.0000 C.3     1  UNL1        0.0996
     49 C           9.2331   -3.4260    0.0000 C.3     1  UNL1       -0.0177
     50 C           9.7331   -4.2920    0.0000 C.3     1  UNL1        0.0261
     51 C           7.7331   -4.2920    0.0000 C.2     1  UNL1        0.2308
     52 CA         12.2331   -5.1581    0.0000 C.3     1  UNL1        0.0994
     53 CB         12.7331   -4.2920    0.0000 C.3     1  UNL1       -0.0259
     54 C          10.7331   -4.2920    0.0000 C.2     0  ACE0        0.2137
     55 CG         13.7331   -4.2920    0.0000 C.3     1  UNL1       -0.0498
     56 CD         14.2331   -3.4260    0.0000 C.3     1  UNL1       -0.0406
     57 C          12.7331   -6.0241    0.0000 C.2     1  UNL1        0.2340
     58 CE         15.2331   -3.4260    0.0000 C.3     1  UNL1       -0.0069
     59 CA         14.2331   -6.8901    0.0000 C.3     1  UNL1        0.1174
     60 CB         13.7331   -7.7562    0.0000 C.3     1  UNL1       -0.0362
     61 C          15.2331   -6.8901    0.0000 C.2     1  UNL1        0.3250
     62 H           6.8671    3.5162    0.0000 H       1  UNL1        0.0650
     63 H           8.2700    3.3262    0.0000 H       1  UNL1        0.0640
     64 H           9.1360    4.4462    0.0000 H       1  UNL1        0.0537
     65 H           6.8671    5.7562    0.0000 H       1  UNL1        0.0647
     66 H           5.1350    3.5162    0.0000 H       1  UNL1        0.0930
     67 H           3.7320    3.3262    0.0000 H       1  UNL1        0.0575
     68 H           8.5991    5.7562    0.0000 H       1  UNL1        0.0925
     69 H           3.4030    3.5162    0.0000 H       1  UNL1        0.0640
     70 H           3.4030    5.7562    0.0000 H       1  UNL1        0.0646
     71 H           4.8059    5.9462    0.0000 H       1  UNL1        0.0647
     72 H           5.3905    5.7438    0.0000 H       1  UNL1        0.0584
     73 H           5.7890    5.0535    0.0000 H       1  UNL1        0.0584
     74 H           9.7752    3.0993    0.0000 H       1  UNL1        0.1224
     75 H           4.8059    2.3262    0.0000 H       1  UNL1        0.1492
     76 H           4.8796    6.5285    0.0000 H       1  UNL1        0.0584
     77 H           4.4810    7.2188    0.0000 H       1  UNL1        0.0584
     78 H           8.5431    2.3071    0.0000 H       1  UNL1        0.0690
     79 H          10.7297    4.6111    0.0000 H       1  UNL1        0.0421
     80 H           9.9326    4.6111    0.0000 H       1  UNL1        0.0421
     81 H           9.4651    6.2562    0.0000 H       1  UNL1        0.2125
     82 H           2.0000    3.9462    0.0000 H       1  UNL1        0.2100
     83 H           2.0000    5.3262    0.0000 H       1  UNL1        0.2100
     84 H           9.2331    1.1501    0.0000 H       1  UNL1        0.0259
     85 H           9.8531    1.7701    0.0000 H       1  UNL1        0.0259
     86 H           9.2331    2.3901    0.0000 H       1  UNL1        0.0259
     87 H           6.5380    6.9462    0.0000 H       1  UNL1        0.2095
     88 H          10.8872    3.0992    0.0000 H       1  UNL1        0.0242
     89 H          11.7341    3.3262    0.0000 H       1  UNL1        0.0242
     90 H          11.5072    4.1731    0.0000 H       1  UNL1        0.0242
     91 H           3.4030    7.7562    0.0000 H       1  UNL1        0.2095
     92 H           2.7830    1.1362    0.0000 H       1  UNL1        0.0322
     93 H           3.4030    0.5162    0.0000 H       1  UNL1        0.0322
     94 H           4.0230    1.1362    0.0000 H       1  UNL1        0.0322
     95 H           8.8531    0.0381    0.0000 H       1  UNL1        0.1495
     96 H           7.4231   -0.2910    0.0000 H       1  UNL1        0.0592
     97 H           6.7331   -0.2079    0.0000 H       1  UNL1        0.0252
     98 H           6.1131   -0.8279    0.0000 H       1  UNL1        0.0252
     99 H           6.7331   -1.4480    0.0000 H       1  UNL1        0.0252
    100 H           7.1131   -2.5600    0.0000 H       1  UNL1        0.1495
    101 H           8.5431   -2.8891    0.0000 H       1  UNL1        0.0594
    102 H           9.8157   -3.2140    0.0000 H       1  UNL1        0.0292
    103 H           9.1254   -2.8154    0.0000 H       1  UNL1        0.0292
    104 H           9.1505   -4.5041    0.0000 H       1  UNL1        0.0359
    105 H           9.8408   -4.9026    0.0000 H       1  UNL1        0.0359
    106 HA         11.9231   -4.6211    0.0000 H       1  UNL1        0.0594
    107 HB1        12.8408   -3.6815    0.0000 H       1  UNL1        0.0288
    108 HB2        12.1505   -4.0800    0.0000 H       1  UNL1        0.0288
    109 HG1        13.6254   -4.9026    0.0000 H       1  UNL1        0.0266
    110 HG2        14.3157   -4.5041    0.0000 H       1  UNL1        0.0266
    111 H          10.9231   -5.6950    0.0000 H       1  UNL1        0.1494
    112 HD1        14.3408   -2.8154    0.0000 H       1  UNL1        0.0277
    113 HD2        13.6505   -3.2140    0.0000 H       1  UNL1        0.0277
    114 H           7.9231   -5.6950    0.0000 H       1  UNL1        0.1450
    115 H           8.8531   -5.1581    0.0000 H       1  UNL1        0.1450
    116 HE1        15.1254   -4.0366    0.0000 H       1  UNL1        0.0422
    117 HE2        15.8157   -3.6381    0.0000 H       1  UNL1        0.0422
    118 H          14.0431   -5.4872    0.0000 H       1  UNL1        0.1496
    119 HA         13.6131   -6.8901    0.0000 H       1  UNL1        0.0611
    120 HZ1        16.3531   -2.5600    0.0000 H       1  UNL1        0.1182
    121 HZ2        15.4231   -2.0231    0.0000 H       1  UNL1        0.1182
    122 HB1        13.1962   -7.4462    0.0000 H       1  UNL1        0.0253
    123 HB2        13.4231   -8.2931    0.0000 H       1  UNL1        0.0253
    124 HB3        14.2700   -8.0662    0.0000 H       1  UNL1        0.0253
    125 H          16.3531   -7.7562    0.0000 H       1  UNL1        0.2951
@<TRIPOS>BOND
     1    26     1    1
     2    30     1    1
     3     2    29    1
     4     2    32    1
     5     3    30    1
     6     3    35    1
     7    27     4    1
     8     4    38    1
     9     5    32    1
    10     5    81    1
    11    33     6    1
    12     6    82    1
    13    34     7    1
    14     7    83    1
    15     8    36    1
    16     8    87    1
    17     9    37    1
    18     9    91    1
    19    10    40    2
    20    11    42    2
    21    12    47    2
    22    13    51    2
    23    14    54    2
    24    15    57    2
    25    16    61    1
    26    16   125    1
    27    17    61    2
    28    28    18    1
    29    18    39    1
    30    18    74    1
    31    31    19    1
    32    19    40   am
    33    19    75    1
    34    20    42   am
    35    45    20    1
    36    20    95    1
    37    21    47   am
    38    48    21    1
    39    21   100    1
    40    52    22    1
    41    22    54   am
    42    22   111    1
    43    23    51   am
    44    23   114    1
    45    23   115    1
    46    24    57   am
    47    59    24    1
    48    24   118    1
    49    25    58    1
    50    25   120    1
    51    25   121    1
    52    26    27    1
    53    26    29    1
    54    26    62    1
    55    27    28    1
    56    27    63    1
    57    28    32    1
    58    28    64    1
    59    29    36    1
    60    29    65    1
    61    30    31    1
    62    30    66    1
    63    31    33    1
    64    31    67    1
    65    32    68    1
    66    33    34    1
    67    33    69    1
    68    34    35    1
    69    34    70    1
    70    35    37    1
    71    35    71    1
    72    36    72    1
    73    36    73    1
    74    37    76    1
    75    37    77    1
    76    38    41    1
    77    38    42    1
    78    38    78    1
    79    39    43    1
    80    39    79    1
    81    39    80    1
    82    40    44    1
    83    41    84    1
    84    41    85    1
    85    41    86    1
    86    43    88    1
    87    43    89    1
    88    43    90    1
    89    44    92    1
    90    44    93    1
    91    44    94    1
    92    45    46    1
    93    45    47    1
    94    45    96    1
    95    46    97    1
    96    46    98    1
    97    46    99    1
    98    48    49    1
    99    48    51    1
   100    48   101    1
   101    49    50    1
   102    49   102    1
   103    49   103    1
   104    50    54    1
   105    50   104    1
   106    50   105    1
   107    52    53    1
   108    52    57    1
   109    52   106    1
   110    53    55    1
   111    53   107    1
   112    53   108    1
   113    55    56    1
   114    55   109    1
   115    55   110    1
   116    56    58    1
   117    56   112    1
   118    56   113    1
   119    58   116    1
   120    58   117    1
   121    59    60    1
   122    59    61    1
   123    59   119    1
   124    60   122    1
   125    60   123    1
   126    60   124    1
