@<TRIPOS>MOLECULE
IMPHY007077
 25 25 0 0 0
SMALL
GASTEIGER

@<TRIPOS>ATOM
      1 O           2.8090   -0.1807    0.0000 O.2     1  UNL1       -0.4672
      2 C           4.5691    0.0981    0.0000 C.3     1  UNL1        0.0242
      3 C           3.6180    0.4071    0.0000 C.ar    1  UNL1        0.1114
      4 C           3.3090    1.3582    0.0000 C.ar    1  UNL1       -0.0093
      5 C           4.7770   -0.8800    0.0000 C.2     1  UNL1       -0.0780
      6 C           5.7281   -1.1890    0.0000 C.2     1  UNL1       -0.0792
      7 C           2.3090    1.3582    0.0000 C.ar    1  UNL1       -0.0207
      8 C           3.8968    2.1672    0.0000 C.3     1  UNL1       -0.0364
      9 C           2.0000    0.4071    0.0000 C.ar    1  UNL1        0.0923
     10 C           5.9360   -2.1672    0.0000 C.3     1  UNL1       -0.0440
     11 C           6.4712   -0.5199    0.0000 C.3     1  UNL1       -0.0440
     12 H           5.1887    0.1197    0.0000 H       1  UNL1        0.0386
     13 H           4.6554    0.7121    0.0000 H       1  UNL1        0.0386
     14 H           4.3162   -1.2949    0.0000 H       1  UNL1        0.0576
     15 H           1.9446    1.8598    0.0000 H       1  UNL1        0.0652
     16 H           4.3984    1.8028    0.0000 H       1  UNL1        0.0279
     17 H           4.2612    2.6688    0.0000 H       1  UNL1        0.0279
     18 H           3.3952    2.5316    0.0000 H       1  UNL1        0.0279
     19 H           1.4103    0.2155    0.0000 H       1  UNL1        0.1029
     20 H           5.3295   -2.2961    0.0000 H       1  UNL1        0.0274
     21 H           6.0649   -2.7736    0.0000 H       1  UNL1        0.0274
     22 H           6.5424   -2.0383    0.0000 H       1  UNL1        0.0274
     23 H           6.8861   -0.9807    0.0000 H       1  UNL1        0.0274
     24 H           6.9320   -0.1051    0.0000 H       1  UNL1        0.0274
     25 H           6.0563   -0.0592    0.0000 H       1  UNL1        0.0274
@<TRIPOS>BOND
     1     1     3   ar
     2     1     9   ar
     3     2     3    1
     4     2     5    1
     5     2    12    1
     6     2    13    1
     7     3     4   ar
     8     4     7   ar
     9     4     8    1
    10     5     6    2
    11     5    14    1
    12     6    10    1
    13     6    11    1
    14     7     9   ar
    15     7    15    1
    16     8    16    1
    17     8    17    1
    18     8    18    1
    19     9    19    1
    20    10    20    1
    21    10    21    1
    22    10    22    1
    23    11    23    1
    24    11    24    1
    25    11    25    1
