@<TRIPOS>MOLECULE
IMPHY017586
 17 16 0 0 0
SMALL
GASTEIGER

@<TRIPOS>ATOM
      1 O           4.5981   -0.3170    0.0000 O.3     1  UNL1       -0.4802
      2 O           3.7320    1.1830    0.0000 O.2     1  UNL1       -0.2504
      3 C           2.8660   -0.3170    0.0000 C.3     1  UNL1        0.0592
      4 C           2.0000   -0.8170    0.0000 C.3     1  UNL1       -0.0499
      5 C           2.3660    0.5490    0.0000 C.3     1  UNL1       -0.0499
      6 C           3.3660   -1.1830    0.0000 C.3     1  UNL1       -0.0499
      7 C           3.7320    0.1830    0.0000 C.2     1  UNL1        0.3101
      8 H           1.6900   -0.2801    0.0000 H       1  UNL1        0.0240
      9 H           1.4631   -1.1270    0.0000 H       1  UNL1        0.0240
     10 H           2.3100   -1.3539    0.0000 H       1  UNL1        0.0240
     11 H           2.9030    0.8590    0.0000 H       1  UNL1        0.0240
     12 H           2.0560    1.0860    0.0000 H       1  UNL1        0.0240
     13 H           1.8291    0.2390    0.0000 H       1  UNL1        0.0240
     14 H           2.8291   -1.4930    0.0000 H       1  UNL1        0.0240
     15 H           3.6760   -1.7200    0.0000 H       1  UNL1        0.0240
     16 H           3.9030   -0.8730    0.0000 H       1  UNL1        0.0240
     17 H           5.1350   -0.0070    0.0000 H       1  UNL1        0.2951
@<TRIPOS>BOND
     1     1     7    1
     2     1    17    1
     3     2     7    2
     4     3     4    1
     5     3     5    1
     6     3     6    1
     7     3     7    1
     8     4     8    1
     9     4     9    1
    10     4    10    1
    11     5    11    1
    12     5    12    1
    13     5    13    1
    14     6    14    1
    15     6    15    1
    16     6    16    1
