@<TRIPOS>MOLECULE
IMPHY002392
 14 15 0 0 0
SMALL
GASTEIGER

@<TRIPOS>ATOM
      1 C           1.7321    2.4992    0.0000 C.ar    1  UNL1        0.0763
      2 C           1.7321    1.4995    0.0000 C.ar    1  UNL1        0.0406
      3 C           2.5982    2.9990    0.0000 C.2     1  UNL1        0.1767
      4 C           0.8661    2.9990    0.0000 C.ar    1  UNL1        0.1985
      5 C           2.5982    0.9997    0.0000 C.2     1  UNL1        0.1732
      6 C           0.8661    0.9997    0.0000 C.ar    1  UNL1        0.0031
      7 C           3.4642    2.4992    0.0000 C.3     1  UNL1        0.0769
      8 O           2.5982    3.9999    0.0000 O.2     1  UNL1       -0.2912
      9 C           0.0000    2.4992    0.0000 C.ar    1  UNL1        0.0421
     10 O           0.8661    3.9999    0.0000 O.3     1  UNL1       -0.2865
     11 C           3.4642    1.4995    0.0000 C.3     1  UNL1        0.0696
     12 O           2.5982    0.0000    0.0000 O.2     1  UNL1       -0.2913
     13 C           0.0000    1.4995    0.0000 C.ar    1  UNL1        0.0034
     14 C           4.3303    0.9997    0.0000 C.3     1  UNL1        0.0086
@<TRIPOS>BOND
     1     1     2   ar
     2     1     3    1
     3     1     4   ar
     4     2     5    1
     5     2     6   ar
     6     3     7    1
     7     3     8    2
     8     4     9   ar
     9     4    10    1
    10     5    11    1
    11     5    12    2
    12     6    13   ar
    13     7    11    1
    14     9    13   ar
    15    11    14    1
