@<TRIPOS>MOLECULE
IMPHY007418
 17 16 0 0 0
SMALL
GASTEIGER

@<TRIPOS>ATOM
      1 O           4.5981   -0.7500    0.0000 O.2     1  UNL1       -0.2930
      2 C           2.8660    0.2500    0.0000 C.2     1  UNL1       -0.0724
      3 C           3.7320    0.7500    0.0000 C.2     1  UNL1       -0.0208
      4 C           2.0000    0.7500    0.0000 C.3     1  UNL1       -0.0437
      5 C           2.8660   -0.7500    0.0000 C.3     1  UNL1       -0.0437
      6 C           4.5981    0.2500    0.0000 C.2     1  UNL1        0.1530
      7 C           5.4641    0.7500    0.0000 C.3     1  UNL1       -0.0020
      8 H           3.7320    1.3700    0.0000 H       1  UNL1        0.0652
      9 H           2.3100    1.2869    0.0000 H       1  UNL1        0.0274
     10 H           1.4631    1.0600    0.0000 H       1  UNL1        0.0274
     11 H           1.6900    0.2131    0.0000 H       1  UNL1        0.0274
     12 H           2.2460   -0.7500    0.0000 H       1  UNL1        0.0274
     13 H           2.8660   -1.3700    0.0000 H       1  UNL1        0.0274
     14 H           3.4860   -0.7500    0.0000 H       1  UNL1        0.0274
     15 H           5.7741    0.2131    0.0000 H       1  UNL1        0.0309
     16 H           6.0010    1.0600    0.0000 H       1  UNL1        0.0309
     17 H           5.1541    1.2869    0.0000 H       1  UNL1        0.0309
@<TRIPOS>BOND
     1     1     6    2
     2     2     3    2
     3     2     4    1
     4     2     5    1
     5     3     6    1
     6     3     8    1
     7     4     9    1
     8     4    10    1
     9     4    11    1
    10     5    12    1
    11     5    13    1
    12     5    14    1
    13     6     7    1
    14     7    15    1
    15     7    16    1
    16     7    17    1
