@<TRIPOS>MOLECULE
IMPHY007998
 30 32 0 0 0
SMALL
GASTEIGER

@<TRIPOS>ATOM
      1 O           8.9834    0.2078    0.0000 O.3     1  UNL1       -0.4948
      2 O           2.6069   -1.7403    0.0000 O.3     1  UNL1       -0.5067
      3 N           5.4787    1.1203    0.0000 N.ar    1  UNL1       -0.3540
      4 C           5.9787   -0.4185    0.0000 C.ar    1  UNL1        0.0080
      5 C           4.9787   -0.4185    0.0000 C.ar    1  UNL1        0.0108
      6 C           6.2877    0.5325    0.0000 C.ar    1  UNL1        0.0510
      7 C           4.6697    0.5325    0.0000 C.ar    1  UNL1        0.0477
      8 C           6.6636   -1.2033    0.0000 C.ar    1  UNL1       -0.0456
      9 C           7.6842   -0.9946    0.0000 C.ar    1  UNL1       -0.0081
     10 C           7.3031    0.7648    0.0000 C.ar    1  UNL1        0.0042
     11 C           8.0060   -0.0039    0.0000 C.ar    1  UNL1        0.1250
     12 C           4.2937   -1.2033    0.0000 C.ar    1  UNL1       -0.0104
     13 C           3.6543    0.7648    0.0000 C.ar    1  UNL1       -0.0343
     14 C           3.2732   -0.9946    0.0000 C.ar    1  UNL1        0.1176
     15 C           2.9513   -0.0039    0.0000 C.ar    1  UNL1       -0.0182
     16 C           8.3504   -1.7403    0.0000 C.3     1  UNL1       -0.0362
     17 C           9.2887    1.1600    0.0000 C.3     1  UNL1        0.0788
     18 H           5.4787    1.7403    0.0000 H       1  UNL1        0.1659
     19 H           6.4653   -1.7907    0.0000 H       1  UNL1        0.0628
     20 H           7.4879    1.3566    0.0000 H       1  UNL1        0.0675
     21 H           4.4921   -1.7907    0.0000 H       1  UNL1        0.0661
     22 H           3.4695    1.3566    0.0000 H       1  UNL1        0.0639
     23 H           2.3454    0.1273    0.0000 H       1  UNL1        0.0655
     24 H           7.8881   -2.1534    0.0000 H       1  UNL1        0.0279
     25 H           8.7635   -2.2026    0.0000 H       1  UNL1        0.0279
     26 H           8.8128   -1.3272    0.0000 H       1  UNL1        0.0279
     27 H           9.8791    0.9707    0.0000 H       1  UNL1        0.0660
     28 H           9.4780    1.7504    0.0000 H       1  UNL1        0.0660
     29 H           8.6983    1.3493    0.0000 H       1  UNL1        0.0660
     30 H           2.0000   -1.6137    0.0000 H       1  UNL1        0.2921
@<TRIPOS>BOND
     1     1    11    1
     2     1    17    1
     3     2    14    1
     4     2    30    1
     5     3     6   ar
     6     3     7   ar
     7     3    18    1
     8     4     5   ar
     9     4     6   ar
    10     4     8   ar
    11     5     7   ar
    12     5    12   ar
    13     6    10   ar
    14     7    13   ar
    15     8     9   ar
    16     8    19    1
    17     9    11   ar
    18     9    16    1
    19    10    11   ar
    20    10    20    1
    21    12    14   ar
    22    12    21    1
    23    13    15   ar
    24    13    22    1
    25    14    15   ar
    26    15    23    1
    27    16    24    1
    28    16    25    1
    29    16    26    1
    30    17    27    1
    31    17    28    1
    32    17    29    1
