@<TRIPOS>MOLECULE
IMPHY004007
 94 97 0 0 0
SMALL
GASTEIGER

@<TRIPOS>ATOM
      1 O           5.1666   -0.7233    0.0000 O.2     1  UNL1       -0.4884
      2 O           5.6945    0.3220    0.0000 O.2     1  UNL1       -0.2953
      3 O           5.2956    2.4529    0.0000 O.2     1  UNL1       -0.2907
      4 O           4.1200   -0.0441    0.0000 O.2     1  UNL1       -0.2864
      5 O           4.6200    4.2860    0.0000 O.3     1  UNL1       -0.5033
      6 O           2.6200    4.2860    0.0000 O.3     1  UNL1       -0.5033
      7 C           6.9266   -0.4847    0.0000 C.3     1  UNL1        0.0885
      8 C           7.8504    1.7458    0.0000 C.3     1  UNL1       -0.0120
      9 C           6.9266    2.1284    0.0000 C.3     1  UNL1        0.1014
     10 C           8.2331    0.8219    0.0000 C.3     1  UNL1       -0.0298
     11 C           7.8504   -0.1020    0.0000 C.3     1  UNL1       -0.0300
     12 C           6.5605    0.8219    0.0000 C.2     1  UNL1        0.1611
     13 C           7.0784   -1.5152    0.0000 C.3     1  UNL1       -0.0269
     14 C           6.0027   -0.1020    0.0000 C.2     1  UNL1        0.1259
     15 C           6.2570   -2.1556    0.0000 C.3     1  UNL1        0.0031
     16 C           6.0027    1.7458    0.0000 C.2     1  UNL1        0.1841
     17 C           6.9266    3.1284    0.0000 C.3     1  UNL1       -0.0144
     18 C           5.2946   -1.7570    0.0000 C.3     1  UNL1        0.1078
     19 C           8.8164    2.0046    0.0000 C.3     1  UNL1       -0.0582
     20 C           8.1093    2.7117    0.0000 C.3     1  UNL1       -0.0582
     21 C           9.2331    0.8219    0.0000 C.3     1  UNL1       -0.0311
     22 C           5.6200    0.8219    0.0000 C.2     1  UNL1        0.1039
     23 C           6.3913   -3.1466    0.0000 C.3     1  UNL1       -0.0280
     24 C           4.9084   -2.6794    0.0000 C.3     1  UNL1       -0.0249
     25 C           4.3027   -1.8837    0.0000 C.3     1  UNL1       -0.0249
     26 C           7.7926    3.6284    0.0000 C.2     1  UNL1       -0.0839
     27 C           9.7331   -0.0441    0.0000 C.2     1  UNL1       -0.0850
     28 C           4.6200    0.8219    0.0000 C.2     1  UNL1        0.1999
     29 C           7.3166   -3.5257    0.0000 C.2     1  UNL1       -0.0849
     30 C           7.7926    4.6284    0.0000 C.2     1  UNL1       -0.0796
     31 C          10.7331   -0.0441    0.0000 C.2     1  UNL1       -0.0796
     32 C           4.1200    1.6879    0.0000 C.ar    1  UNL1        0.0262
     33 C           7.4510   -4.5166    0.0000 C.2     1  UNL1       -0.0796
     34 C           8.6586    5.1284    0.0000 C.3     1  UNL1       -0.0440
     35 C           6.9266    5.1284    0.0000 C.3     1  UNL1       -0.0440
     36 C          11.2331   -0.9102    0.0000 C.3     1  UNL1       -0.0440
     37 C          11.2331    0.8219    0.0000 C.3     1  UNL1       -0.0440
     38 C           4.6200    2.5539    0.0000 C.ar    1  UNL1       -0.0057
     39 C           3.1200    1.6879    0.0000 C.ar    1  UNL1       -0.0472
     40 C           8.3764   -4.8957    0.0000 C.3     1  UNL1       -0.0440
     41 C           6.6600   -5.1284    0.0000 C.3     1  UNL1       -0.0440
     42 C           4.1200    3.4200    0.0000 C.ar    1  UNL1        0.1589
     43 C           2.6200    2.5539    0.0000 C.ar    1  UNL1       -0.0159
     44 C           3.1200    3.4200    0.0000 C.ar    1  UNL1        0.1583
     45 H           8.5776    1.3374    0.0000 H       1  UNL1        0.0310
     46 H           7.9314   -0.7167    0.0000 H       1  UNL1        0.0282
     47 H           8.4651   -0.1829    0.0000 H       1  UNL1        0.0282
     48 H           7.3704   -2.0622    0.0000 H       1  UNL1        0.0283
     49 H           7.6673   -1.3212    0.0000 H       1  UNL1        0.0283
     50 H           6.8311   -2.3896    0.0000 H       1  UNL1        0.0342
     51 H           6.7145    3.7110    0.0000 H       1  UNL1        0.0321
     52 H           6.3160    3.0208    0.0000 H       1  UNL1        0.0321
     53 H           8.9768    1.4057    0.0000 H       1  UNL1        0.0235
     54 H           9.4152    2.1650    0.0000 H       1  UNL1        0.0235
     55 H           8.6559    2.6034    0.0000 H       1  UNL1        0.0235
     56 H           8.7081    2.5512    0.0000 H       1  UNL1        0.0235
     57 H           8.2697    3.3106    0.0000 H       1  UNL1        0.0235
     58 H           7.5104    2.8722    0.0000 H       1  UNL1        0.0235
     59 H           9.8157    1.0339    0.0000 H       1  UNL1        0.0310
     60 H           9.1255    1.4325    0.0000 H       1  UNL1        0.0310
     61 H           5.7718   -3.1219    0.0000 H       1  UNL1        0.0311
     62 H           6.2594   -3.7524    0.0000 H       1  UNL1        0.0311
     63 H           4.3365   -2.4400    0.0000 H       1  UNL1        0.0268
     64 H           4.6689   -3.2513    0.0000 H       1  UNL1        0.0268
     65 H           5.4803   -2.9189    0.0000 H       1  UNL1        0.0268
     66 H           4.2241   -1.2687    0.0000 H       1  UNL1        0.0268
     67 H           3.6877   -1.9623    0.0000 H       1  UNL1        0.0268
     68 H           4.3812   -2.4987    0.0000 H       1  UNL1        0.0268
     69 H           8.3295    3.3184    0.0000 H       1  UNL1        0.0572
     70 H           9.4231   -0.5811    0.0000 H       1  UNL1        0.0572
     71 H           7.8071   -3.1464    0.0000 H       1  UNL1        0.0572
     72 H           8.9686    4.5915    0.0000 H       1  UNL1        0.0274
     73 H           9.1956    5.4384    0.0000 H       1  UNL1        0.0274
     74 H           8.3486    5.6654    0.0000 H       1  UNL1        0.0274
     75 H           7.2366    5.6654    0.0000 H       1  UNL1        0.0274
     76 H           6.3896    5.4384    0.0000 H       1  UNL1        0.0274
     77 H           6.6166    4.5915    0.0000 H       1  UNL1        0.0274
     78 H          10.6962   -1.2202    0.0000 H       1  UNL1        0.0274
     79 H          11.5431   -1.4471    0.0000 H       1  UNL1        0.0274
     80 H          11.7701   -0.6002    0.0000 H       1  UNL1        0.0274
     81 H          11.7701    0.5119    0.0000 H       1  UNL1        0.0274
     82 H          11.5431    1.3588    0.0000 H       1  UNL1        0.0274
     83 H          10.6962    1.1319    0.0000 H       1  UNL1        0.0274
     84 H           5.2400    2.5539    0.0000 H       1  UNL1        0.0662
     85 H           2.8100    1.1510    0.0000 H       1  UNL1        0.0626
     86 H           8.1413   -5.4695    0.0000 H       1  UNL1        0.0274
     87 H           8.9501   -5.1308    0.0000 H       1  UNL1        0.0274
     88 H           8.6114   -4.3220    0.0000 H       1  UNL1        0.0274
     89 H           6.2807   -4.6380    0.0000 H       1  UNL1        0.0274
     90 H           6.1696   -5.5078    0.0000 H       1  UNL1        0.0274
     91 H           7.0393   -5.6189    0.0000 H       1  UNL1        0.0274
     92 H           2.0000    2.5539    0.0000 H       1  UNL1        0.0655
     93 H           4.3100    4.8229    0.0000 H       1  UNL1        0.2923
     94 H           2.0000    4.2860    0.0000 H       1  UNL1        0.2923
@<TRIPOS>BOND
     1     1    14    1
     2     1    18    1
     3     2    12    2
     4     3    16    2
     5     4    28    2
     6     5    42    1
     7     5    93    1
     8     6    44    1
     9     6    94    1
    10     7    11    1
    11     7    12    1
    12     7    13    1
    13     7    14    1
    14     8     9    1
    15     8    10    1
    16     8    19    1
    17     8    20    1
    18     9    12    1
    19     9    16    1
    20     9    17    1
    21    10    11    1
    22    10    21    1
    23    10    45    1
    24    11    46    1
    25    11    47    1
    26    13    15    1
    27    13    48    1
    28    13    49    1
    29    14    22    2
    30    15    18    1
    31    15    23    1
    32    15    50    1
    33    16    22    1
    34    17    26    1
    35    17    51    1
    36    17    52    1
    37    18    24    1
    38    18    25    1
    39    19    53    1
    40    19    54    1
    41    19    55    1
    42    20    56    1
    43    20    57    1
    44    20    58    1
    45    21    27    1
    46    21    59    1
    47    21    60    1
    48    22    28    1
    49    23    29    1
    50    23    61    1
    51    23    62    1
    52    24    63    1
    53    24    64    1
    54    24    65    1
    55    25    66    1
    56    25    67    1
    57    25    68    1
    58    26    30    2
    59    26    69    1
    60    27    31    2
    61    27    70    1
    62    28    32    1
    63    29    33    2
    64    29    71    1
    65    30    34    1
    66    30    35    1
    67    31    36    1
    68    31    37    1
    69    32    38   ar
    70    32    39   ar
    71    33    40    1
    72    33    41    1
    73    34    72    1
    74    34    73    1
    75    34    74    1
    76    35    75    1
    77    35    76    1
    78    35    77    1
    79    36    78    1
    80    36    79    1
    81    36    80    1
    82    37    81    1
    83    37    82    1
    84    37    83    1
    85    38    42   ar
    86    38    84    1
    87    39    43   ar
    88    39    85    1
    89    40    86    1
    90    40    87    1
    91    40    88    1
    92    41    89    1
    93    41    90    1
    94    41    91    1
    95    42    44   ar
    96    43    44   ar
    97    43    92    1
