@<TRIPOS>MOLECULE
IMPHY009637
 54 56 0 0 0
SMALL
GASTEIGER

@<TRIPOS>ATOM
      1 O           6.0682   -2.7319    0.0000 O.2     1  UNL1       -0.4589
      2 O           9.5984   -0.7078    0.0000 O.2     1  UNL1       -0.2964
      3 O           5.7262    0.2078    0.0000 O.2     1  UNL1       -0.2866
      4 O           4.3198    0.3027    0.0000 O.3     1  UNL1       -0.5058
      5 O           2.5381   -2.7561    0.0000 O.3     1  UNL1       -0.5065
      6 C           7.8282   -0.6973    0.0000 C.3     1  UNL1        0.0674
      7 C           6.9343   -1.2319    0.0000 C.ar    1  UNL1        0.0519
      8 C           8.3182    0.1745    0.0000 C.3     1  UNL1       -0.0176
      9 C           7.3182    0.1629    0.0000 C.3     1  UNL1       -0.0176
     10 C           8.7343   -1.2111    0.0000 C.2     1  UNL1        0.1450
     11 C           8.7343   -2.2527    0.0000 C.3     1  UNL1        0.0136
     12 C           6.9343   -2.2319    0.0000 C.ar    1  UNL1        0.1138
     13 C           7.8282   -2.7666    0.0000 C.3     1  UNL1        0.0126
     14 C           6.0682   -0.7319    0.0000 C.ar    1  UNL1        0.2004
     15 C           7.8082    1.0347    0.0000 C.2     1  UNL1       -0.0840
     16 C           6.3747    0.4941    0.0000 C.2     1  UNL1       -0.0840
     17 C           5.2022   -1.2319    0.0000 C.ar    1  UNL1        0.1057
     18 C           5.2022   -2.2319    0.0000 C.ar    1  UNL1        0.1458
     19 C           8.2981    1.9064    0.0000 C.2     1  UNL1       -0.0796
     20 C           6.1896    1.4768    0.0000 C.2     1  UNL1       -0.0796
     21 C           4.3083   -0.6973    0.0000 C.ar    1  UNL1        0.1347
     22 C           4.3083   -2.7666    0.0000 C.ar    1  UNL1        0.0231
     23 C           3.4022   -1.2111    0.0000 C.ar    1  UNL1        0.0223
     24 C           3.4022   -2.2527    0.0000 C.ar    1  UNL1        0.1239
     25 C           7.7882    2.7666    0.0000 C.3     1  UNL1       -0.0440
     26 C           9.2981    1.9180    0.0000 C.3     1  UNL1       -0.0440
     27 C           6.9482    2.1284    0.0000 C.3     1  UNL1       -0.0440
     28 C           5.2460    1.8079    0.0000 C.3     1  UNL1       -0.0440
     29 H           8.7977   -0.2185    0.0000 H       1  UNL1        0.0320
     30 H           8.7885    0.5785    0.0000 H       1  UNL1        0.0320
     31 H           7.9198    0.3128    0.0000 H       1  UNL1        0.0320
     32 H           7.3472    0.7822    0.0000 H       1  UNL1        0.0320
     33 H           8.9433   -2.8364    0.0000 H       1  UNL1        0.0346
     34 H           9.3451   -2.1467    0.0000 H       1  UNL1        0.0346
     35 H           7.4236   -3.2364    0.0000 H       1  UNL1        0.0348
     36 H           8.2218   -3.2456    0.0000 H       1  UNL1        0.0348
     37 H           7.1882    1.0275    0.0000 H       1  UNL1        0.0572
     38 H           5.9044    0.0902    0.0000 H       1  UNL1        0.0572
     39 H           4.3154   -3.3866    0.0000 H       1  UNL1        0.0691
     40 H           2.8665   -0.8991    0.0000 H       1  UNL1        0.0691
     41 H           9.3052    1.2980    0.0000 H       1  UNL1        0.0274
     42 H           5.4514    2.3929    0.0000 H       1  UNL1        0.0274
     43 H           4.6610    2.0132    0.0000 H       1  UNL1        0.0274
     44 H           5.0407    1.2229    0.0000 H       1  UNL1        0.0274
     45 H           7.3522    1.6581    0.0000 H       1  UNL1        0.0274
     46 H           7.4185    2.5324    0.0000 H       1  UNL1        0.0274
     47 H           6.5442    2.5987    0.0000 H       1  UNL1        0.0274
     48 H           9.9180    1.9251    0.0000 H       1  UNL1        0.0274
     49 H           9.2909    2.5379    0.0000 H       1  UNL1        0.0274
     50 H           8.3215    3.0828    0.0000 H       1  UNL1        0.0274
     51 H           7.4720    3.2999    0.0000 H       1  UNL1        0.0274
     52 H           7.2548    2.4504    0.0000 H       1  UNL1        0.0274
     53 H           3.7865    0.6188    0.0000 H       1  UNL1        0.2922
     54 H           2.0000   -2.4482    0.0000 H       1  UNL1        0.2921
@<TRIPOS>BOND
     1     1    12   ar
     2     1    18   ar
     3     2    10    2
     4     3    14    2
     5     4    21    1
     6     4    53    1
     7     5    24    1
     8     5    54    1
     9     6     7    1
    10     6     8    1
    11     6     9    1
    12     6    10    1
    13     7    12   ar
    14     7    14   ar
    15     8    15    1
    16     8    29    1
    17     8    30    1
    18     9    16    1
    19     9    31    1
    20     9    32    1
    21    10    11    1
    22    11    13    1
    23    11    33    1
    24    11    34    1
    25    12    13    1
    26    13    35    1
    27    13    36    1
    28    14    17   ar
    29    15    19    2
    30    15    37    1
    31    16    20    2
    32    16    38    1
    33    17    18   ar
    34    17    21   ar
    35    18    22   ar
    36    19    25    1
    37    19    26    1
    38    20    27    1
    39    20    28    1
    40    21    23   ar
    41    22    24   ar
    42    22    39    1
    43    23    24   ar
    44    23    40    1
    45    25    50    1
    46    25    51    1
    47    25    52    1
    48    26    41    1
    49    26    48    1
    50    26    49    1
    51    27    45    1
    52    27    46    1
    53    27    47    1
    54    28    42    1
    55    28    43    1
    56    28    44    1
