@<TRIPOS>MOLECULE
IMPHY013076
 84 88 0 0 0
SMALL
GASTEIGER

@<TRIPOS>ATOM
      1 O           8.3593    2.8315    0.0000 O.3     1  UNL1       -0.3915
      2 O           7.9506   -2.4876    0.0000 O.3     1  UNL1       -0.3912
      3 O          10.6064   -0.9287    0.0000 O.3     1  UNL1       -0.3944
      4 O           2.5357   -2.5085    0.0000 O.3     1  UNL1       -0.3912
      5 C           7.9288    0.5438    0.0000 C.3     1  UNL1       -0.0169
      6 C           7.9288   -0.4562    0.0000 C.3     1  UNL1       -0.0172
      7 C           8.8228    1.0785    0.0000 C.3     1  UNL1       -0.0008
      8 C           9.7288    0.5646    0.0000 C.3     1  UNL1        0.0027
      9 C           7.0628   -0.9562    0.0000 C.3     1  UNL1        0.0125
     10 C          10.4911    1.2654    0.0000 C.3     1  UNL1       -0.0283
     11 C           8.8228   -0.9909    0.0000 C.3     1  UNL1       -0.0459
     12 C           9.7288   -0.4770    0.0000 C.3     1  UNL1       -0.0441
     13 C           9.0329    2.0924    0.0000 C.3     1  UNL1        0.0594
     14 C           7.0628    1.0438    0.0000 C.3     1  UNL1       -0.0282
     15 C           6.1968   -0.4562    0.0000 C.2     1  UNL1       -0.0612
     16 C           5.2868   -0.9630    0.0000 C.3     1  UNL1       -0.0072
     17 C          10.0619    2.2077    0.0000 C.3     1  UNL1       -0.0229
     18 C           5.2787   -2.0046    0.0000 C.3     1  UNL1       -0.0221
     19 C           7.0789   -1.9977    0.0000 C.3     1  UNL1        0.0625
     20 C           7.9288    1.5438    0.0000 C.3     1  UNL1       -0.0584
     21 C           7.9288   -1.4562    0.0000 C.3     1  UNL1       -0.0584
     22 C          10.5987    0.0713    0.0000 C.3     1  UNL1        0.0504
     23 C           6.1808   -2.5255    0.0000 C.3     1  UNL1       -0.0221
     24 C           6.1968    0.5438    0.0000 C.2     1  UNL1       -0.0833
     25 C           4.3433   -2.5544    0.0000 C.3     1  UNL1       -0.0052
     26 C          11.4712    1.0667    0.0000 C.3     1  UNL1       -0.0432
     27 C           4.3599   -0.3990    0.0000 C.3     1  UNL1       -0.0413
     28 C           3.4037   -2.0119    0.0000 C.3     1  UNL1        0.0607
     29 C           5.2945    0.0369    0.0000 C.3     1  UNL1       -0.0556
     30 C           3.4120   -0.9269    0.0000 C.3     1  UNL1       -0.0256
     31 C           3.8467   -3.4223    0.0000 C.3     1  UNL1       -0.0572
     32 C           4.8466   -3.4185    0.0000 C.3     1  UNL1       -0.0572
     33 C          12.1333    1.8161    0.0000 C.3     1  UNL1       -0.0624
     34 C          11.7892    0.1186    0.0000 C.3     1  UNL1       -0.0624
     35 H           9.5970    1.4292    0.0000 H       1  UNL1        0.0337
     36 H           7.8022   -1.3755    0.0000 H       1  UNL1        0.0376
     37 H          10.8770    1.7507    0.0000 H       1  UNL1        0.0310
     38 H           8.4182   -1.4606    0.0000 H       1  UNL1        0.0271
     39 H           9.2164   -1.4699    0.0000 H       1  UNL1        0.0271
     40 H           9.9379   -1.0607    0.0000 H       1  UNL1        0.0272
     41 H          10.3397   -0.3709    0.0000 H       1  UNL1        0.0272
     42 H           9.2513    2.6726    0.0000 H       1  UNL1        0.0596
     43 H           7.4613    1.5188    0.0000 H       1  UNL1        0.0313
     44 H           6.6643    1.5188    0.0000 H       1  UNL1        0.0313
     45 H          10.6500    2.4040    0.0000 H       1  UNL1        0.0293
     46 H           9.9285    2.8131    0.0000 H       1  UNL1        0.0293
     47 H           5.2820   -2.8546    0.0000 H       1  UNL1        0.0316
     48 H           7.6116   -1.6805    0.0000 H       1  UNL1        0.0599
     49 H           8.5488    1.5438    0.0000 H       1  UNL1        0.0235
     50 H           7.9288    2.1638    0.0000 H       1  UNL1        0.0235
     51 H           7.3088    1.5438    0.0000 H       1  UNL1        0.0235
     52 H           7.3088   -1.4562    0.0000 H       1  UNL1        0.0235
     53 H           7.9288   -2.0762    0.0000 H       1  UNL1        0.0235
     54 H           8.5488   -1.4562    0.0000 H       1  UNL1        0.0235
     55 H          11.2101   -0.0316    0.0000 H       1  UNL1        0.0563
     56 H          10.8062    0.6555    0.0000 H       1  UNL1        0.0563
     57 H           5.7835   -3.0014    0.0000 H       1  UNL1        0.0293
     58 H           6.5818   -2.9984    0.0000 H       1  UNL1        0.0293
     59 H           5.6598    0.8538    0.0000 H       1  UNL1        0.0572
     60 H          11.2741    1.6545    0.0000 H       1  UNL1        0.0298
     61 H           4.7681    0.0677    0.0000 H       1  UNL1        0.0274
     62 H           3.9700    0.0831    0.0000 H       1  UNL1        0.0274
     63 H           2.8686   -1.6988    0.0000 H       1  UNL1        0.0599
     64 H           5.9145    0.0322    0.0000 H       1  UNL1        0.0238
     65 H           5.2993    0.6569    0.0000 H       1  UNL1        0.0238
     66 H           4.6745    0.0417    0.0000 H       1  UNL1        0.0238
     67 H           3.2075   -0.3416    0.0000 H       1  UNL1        0.0290
     68 H           2.8004   -1.0283    0.0000 H       1  UNL1        0.0290
     69 H           8.5474    3.4223    0.0000 H       1  UNL1        0.2098
     70 H           3.3085   -3.1144    0.0000 H       1  UNL1        0.0236
     71 H           3.5387   -3.9604    0.0000 H       1  UNL1        0.0236
     72 H           4.3848   -3.7302    0.0000 H       1  UNL1        0.0236
     73 H           4.3109   -3.7305    0.0000 H       1  UNL1        0.0236
     74 H           5.1587   -3.9542    0.0000 H       1  UNL1        0.0236
     75 H           5.3824   -3.1064    0.0000 H       1  UNL1        0.0236
     76 H          12.5979    1.4056    0.0000 H       1  UNL1        0.0232
     77 H          12.5438    2.2808    0.0000 H       1  UNL1        0.0232
     78 H          11.6687    2.2266    0.0000 H       1  UNL1        0.0232
     79 H          11.2014   -0.0785    0.0000 H       1  UNL1        0.0232
     80 H          11.9863   -0.4692    0.0000 H       1  UNL1        0.0232
     81 H          12.3770    0.3158    0.0000 H       1  UNL1        0.0232
     82 H           7.9578   -3.1076    0.0000 H       1  UNL1        0.2098
     83 H          11.1457   -1.2345    0.0000 H       1  UNL1        0.2094
     84 H           2.0000   -2.1965    0.0000 H       1  UNL1        0.2098
@<TRIPOS>BOND
     1    13     1    1
     2     1    69    1
     3    19     2    1
     4     2    82    1
     5     3    22    1
     6     3    83    1
     7    28     4    1
     8     4    84    1
     9     5     6    1
    10     5     7    1
    11     5    14    1
    12     5    20    1
    13     6     9    1
    14     6    11    1
    15     6    21    1
    16     7     8    1
    17     7    13    1
    18     7    35    1
    19     8    10    1
    20     8    12    1
    21     8    22    1
    22     9    15    1
    23     9    19    1
    24     9    36    1
    25    10    17    1
    26    10    26    1
    27    10    37    1
    28    11    12    1
    29    11    38    1
    30    11    39    1
    31    12    40    1
    32    12    41    1
    33    13    17    1
    34    13    42    1
    35    14    24    1
    36    14    43    1
    37    14    44    1
    38    15    16    1
    39    15    24    2
    40    16    18    1
    41    16    27    1
    42    16    29    1
    43    17    45    1
    44    17    46    1
    45    18    23    1
    46    18    25    1
    47    18    47    1
    48    19    23    1
    49    19    48    1
    50    20    49    1
    51    20    50    1
    52    20    51    1
    53    21    52    1
    54    21    53    1
    55    21    54    1
    56    22    55    1
    57    22    56    1
    58    23    57    1
    59    23    58    1
    60    24    59    1
    61    25    28    1
    62    25    31    1
    63    25    32    1
    64    26    33    1
    65    26    34    1
    66    26    60    1
    67    27    30    1
    68    27    61    1
    69    27    62    1
    70    28    30    1
    71    28    63    1
    72    29    64    1
    73    29    65    1
    74    29    66    1
    75    30    67    1
    76    30    68    1
    77    31    70    1
    78    31    71    1
    79    31    72    1
    80    32    73    1
    81    32    74    1
    82    32    75    1
    83    33    76    1
    84    33    77    1
    85    33    78    1
    86    34    79    1
    87    34    80    1
    88    34    81    1
