@<TRIPOS>MOLECULE
IMPHY011897
 49 52 0 0 0
SMALL
GASTEIGER

@<TRIPOS>ATOM
      1 O           6.9343    1.7500    0.0000 O.3     1  UNL1       -0.3369
      2 O           7.8003    0.2500    0.0000 O.3     1  UNL1       -0.4532
      3 O           9.5323    3.2500    0.0000 O.3     1  UNL1       -0.3864
      4 O           9.5323    1.2500    0.0000 O.3     1  UNL1       -0.3829
      5 O           7.8003    4.2500    0.0000 O.3     1  UNL1       -0.3869
      6 O           6.0682   -1.7500    0.0000 O.2     1  UNL1       -0.4507
      7 O           6.0682    1.2500    0.0000 O.2     1  UNL1       -0.2830
      8 O           4.3198    1.2846    0.0000 O.3     1  UNL1       -0.5058
      9 O           2.5381   -1.7742    0.0000 O.3     1  UNL1       -0.5065
     10 O           8.6663   -4.2500    0.0000 O.3     1  UNL1       -0.5033
     11 O          10.3984   -3.2500    0.0000 O.3     1  UNL1       -0.5033
     12 C           8.6663    2.7500    0.0000 C.3     1  UNL1        0.1148
     13 C           8.6663    1.7500    0.0000 C.3     1  UNL1        0.1454
     14 C           7.8003    3.2500    0.0000 C.3     1  UNL1        0.1070
     15 C           7.8003    1.2500    0.0000 C.3     1  UNL1        0.2308
     16 C           6.9343    2.7500    0.0000 C.3     1  UNL1        0.0802
     17 C           6.9343   -0.2500    0.0000 C.ar    1  UNL1        0.2138
     18 C           6.9343   -1.2500    0.0000 C.ar    1  UNL1        0.1810
     19 C           6.0682    0.2500    0.0000 C.ar    1  UNL1        0.2382
     20 C           5.2022   -0.2500    0.0000 C.ar    1  UNL1        0.1092
     21 C           5.2022   -1.2500    0.0000 C.ar    1  UNL1        0.1465
     22 C           7.8003   -1.7500    0.0000 C.ar    1  UNL1        0.0247
     23 C           4.3083    0.2847    0.0000 C.ar    1  UNL1        0.1348
     24 C           4.3083   -1.7847    0.0000 C.ar    1  UNL1        0.0231
     25 C           7.8003   -2.7500    0.0000 C.ar    1  UNL1       -0.0057
     26 C           8.6663   -1.2500    0.0000 C.ar    1  UNL1       -0.0473
     27 C           3.4022   -0.2292    0.0000 C.ar    1  UNL1        0.0223
     28 C           3.4022   -1.2708    0.0000 C.ar    1  UNL1        0.1239
     29 C           8.6663   -3.2500    0.0000 C.ar    1  UNL1        0.1589
     30 C           9.5323   -1.7500    0.0000 C.ar    1  UNL1       -0.0159
     31 C           9.5323   -2.7500    0.0000 C.ar    1  UNL1        0.1583
     32 H           8.6663    3.3700    0.0000 H       1  UNL1        0.0648
     33 H           8.6663    1.1300    0.0000 H       1  UNL1        0.0683
     34 H           7.2634    3.5600    0.0000 H       1  UNL1        0.0643
     35 H           7.2634    0.9400    0.0000 H       1  UNL1        0.1084
     36 H           6.7222    3.3326    0.0000 H       1  UNL1        0.0588
     37 H           6.3237    2.6423    0.0000 H       1  UNL1        0.0588
     38 H           9.5323    3.8700    0.0000 H       1  UNL1        0.2100
     39 H          10.0693    1.5600    0.0000 H       1  UNL1        0.2102
     40 H           7.2634    4.5600    0.0000 H       1  UNL1        0.2100
     41 H           4.3154   -2.4046    0.0000 H       1  UNL1        0.0691
     42 H           7.2634   -3.0600    0.0000 H       1  UNL1        0.0662
     43 H           8.6663   -0.6300    0.0000 H       1  UNL1        0.0626
     44 H           2.8665    0.0829    0.0000 H       1  UNL1        0.0691
     45 H          10.0693   -1.4400    0.0000 H       1  UNL1        0.0655
     46 H           3.7865    1.6008    0.0000 H       1  UNL1        0.2922
     47 H           2.0000   -1.4662    0.0000 H       1  UNL1        0.2921
     48 H           8.1294   -4.5600    0.0000 H       1  UNL1        0.2923
     49 H          10.9353   -2.9400    0.0000 H       1  UNL1        0.2923
@<TRIPOS>BOND
     1     1    15    1
     2     1    16    1
     3     2    15    1
     4     2    17    1
     5    12     3    1
     6     3    38    1
     7    13     4    1
     8     4    39    1
     9    14     5    1
    10     5    40    1
    11     6    18   ar
    12     6    21   ar
    13     7    19    2
    14     8    23    1
    15     8    46    1
    16     9    28    1
    17     9    47    1
    18    10    29    1
    19    10    48    1
    20    11    31    1
    21    11    49    1
    22    12    13    1
    23    12    14    1
    24    12    32    1
    25    13    15    1
    26    13    33    1
    27    14    16    1
    28    14    34    1
    29    15    35    1
    30    16    36    1
    31    16    37    1
    32    17    18   ar
    33    17    19   ar
    34    18    22    1
    35    19    20   ar
    36    20    21   ar
    37    20    23   ar
    38    21    24   ar
    39    22    25   ar
    40    22    26   ar
    41    23    27   ar
    42    24    28   ar
    43    24    41    1
    44    25    29   ar
    45    25    42    1
    46    26    30   ar
    47    26    43    1
    48    27    28   ar
    49    27    44    1
    50    29    31   ar
    51    30    31   ar
    52    30    45    1
