@<TRIPOS>MOLECULE
IMPHY011362
 58 57 0 0 0
SMALL
GASTEIGER

@<TRIPOS>ATOM
      1 O          10.3312   -1.2500    0.0000 O.3     1  UNL1       -0.3918
      2 O          14.6613    1.2500    0.0000 O.3     1  UNL1       -0.3918
      3 O           2.5369    0.2500    0.0000 O.3     1  UNL1       -0.4806
      4 O           3.4030   -1.2500    0.0000 O.2     1  UNL1       -0.2510
      5 C          10.3312   -0.2500    0.0000 C.3     1  UNL1        0.0553
      6 C          11.1972    0.2500    0.0000 C.3     1  UNL1       -0.0269
      7 C          12.0632   -0.2500    0.0000 C.3     1  UNL1       -0.0506
      8 C           9.4651    0.2500    0.0000 C.3     1  UNL1       -0.0269
      9 C          12.9292    0.2500    0.0000 C.3     1  UNL1       -0.0506
     10 C          13.7953   -0.2500    0.0000 C.3     1  UNL1       -0.0269
     11 C           8.5991   -0.2500    0.0000 C.3     1  UNL1       -0.0507
     12 C          14.6613    0.2500    0.0000 C.3     1  UNL1        0.0553
     13 C           7.7331    0.2500    0.0000 C.3     1  UNL1       -0.0530
     14 C          15.5273   -0.2500    0.0000 C.3     1  UNL1       -0.0269
     15 C           6.8671   -0.2500    0.0000 C.3     1  UNL1       -0.0530
     16 C           6.0010    0.2500    0.0000 C.3     1  UNL1       -0.0526
     17 C          16.3933    0.2500    0.0000 C.3     1  UNL1       -0.0510
     18 C           5.1350   -0.2500    0.0000 C.3     1  UNL1       -0.0430
     19 C          17.2594   -0.2500    0.0000 C.3     1  UNL1       -0.0558
     20 C           4.2690    0.2500    0.0000 C.3     1  UNL1        0.0448
     21 C          18.1254    0.2500    0.0000 C.3     1  UNL1       -0.0653
     22 C           3.4030   -0.2500    0.0000 C.2     1  UNL1        0.3047
     23 H          10.8681   -0.5600    0.0000 H       1  UNL1        0.0593
     24 H          11.5957    0.7249    0.0000 H       1  UNL1        0.0290
     25 H          10.7987    0.7249    0.0000 H       1  UNL1        0.0290
     26 H          11.6647   -0.7249    0.0000 H       1  UNL1        0.0266
     27 H          12.4617   -0.7249    0.0000 H       1  UNL1        0.0266
     28 H           9.8637    0.7249    0.0000 H       1  UNL1        0.0290
     29 H           9.0666    0.7249    0.0000 H       1  UNL1        0.0290
     30 H          13.3278    0.7249    0.0000 H       1  UNL1        0.0266
     31 H          12.5307    0.7249    0.0000 H       1  UNL1        0.0266
     32 H          13.3967   -0.7249    0.0000 H       1  UNL1        0.0290
     33 H          14.1938   -0.7249    0.0000 H       1  UNL1        0.0290
     34 H           8.2006   -0.7249    0.0000 H       1  UNL1        0.0266
     35 H           8.9976   -0.7249    0.0000 H       1  UNL1        0.0266
     36 H          14.1244    0.5600    0.0000 H       1  UNL1        0.0593
     37 H           8.1316    0.7249    0.0000 H       1  UNL1        0.0265
     38 H           7.3346    0.7249    0.0000 H       1  UNL1        0.0265
     39 H          15.1288   -0.7249    0.0000 H       1  UNL1        0.0290
     40 H          15.9258   -0.7249    0.0000 H       1  UNL1        0.0290
     41 H           6.4685   -0.7249    0.0000 H       1  UNL1        0.0265
     42 H           7.2656   -0.7249    0.0000 H       1  UNL1        0.0265
     43 H           6.3996    0.7249    0.0000 H       1  UNL1        0.0265
     44 H           5.6025    0.7249    0.0000 H       1  UNL1        0.0265
     45 H          16.7919    0.7249    0.0000 H       1  UNL1        0.0266
     46 H          15.9948    0.7249    0.0000 H       1  UNL1        0.0266
     47 H           4.7365   -0.7249    0.0000 H       1  UNL1        0.0270
     48 H           5.5335   -0.7249    0.0000 H       1  UNL1        0.0270
     49 H          16.8608   -0.7249    0.0000 H       1  UNL1        0.0263
     50 H          17.6579   -0.7249    0.0000 H       1  UNL1        0.0263
     51 H           9.7942   -1.5600    0.0000 H       1  UNL1        0.2098
     52 H          15.1982    1.5600    0.0000 H       1  UNL1        0.2098
     53 H           4.6675    0.7249    0.0000 H       1  UNL1        0.0377
     54 H           3.8705    0.7249    0.0000 H       1  UNL1        0.0377
     55 H          18.4354   -0.2869    0.0000 H       1  UNL1        0.0230
     56 H          18.6623    0.5600    0.0000 H       1  UNL1        0.0230
     57 H          17.8154    0.7869    0.0000 H       1  UNL1        0.0230
     58 H           2.0000   -0.0600    0.0000 H       1  UNL1        0.2951
@<TRIPOS>BOND
     1     1     5    1
     2     1    51    1
     3     2    12    1
     4     2    52    1
     5     3    22    1
     6     3    58    1
     7     4    22    2
     8     5     6    1
     9     5     8    1
    10     5    23    1
    11     6     7    1
    12     6    24    1
    13     6    25    1
    14     7     9    1
    15     7    26    1
    16     7    27    1
    17     8    11    1
    18     8    28    1
    19     8    29    1
    20     9    10    1
    21     9    30    1
    22     9    31    1
    23    10    12    1
    24    10    32    1
    25    10    33    1
    26    11    13    1
    27    11    34    1
    28    11    35    1
    29    12    14    1
    30    12    36    1
    31    13    15    1
    32    13    37    1
    33    13    38    1
    34    14    17    1
    35    14    39    1
    36    14    40    1
    37    15    16    1
    38    15    41    1
    39    15    42    1
    40    16    18    1
    41    16    43    1
    42    16    44    1
    43    17    19    1
    44    17    45    1
    45    17    46    1
    46    18    20    1
    47    18    47    1
    48    18    48    1
    49    19    21    1
    50    19    49    1
    51    19    50    1
    52    20    22    1
    53    20    53    1
    54    20    54    1
    55    21    55    1
    56    21    56    1
    57    21    57    1
