@<TRIPOS>MOLECULE
IMPHY010533
 96 101 0 0 0
SMALL
GASTEIGER

@<TRIPOS>ATOM
      1 O          13.3640    3.6492    0.0000 O.3     1  UNL1       -0.3591
      2 O          13.0220    1.8603    0.0000 O.3     1  UNL1       -0.3149
      3 O          12.1359    1.3758    0.0000 O.3     1  UNL1       -0.3160
      4 O          12.2418   -0.2007    0.0000 O.3     1  UNL1       -0.3057
      5 O          14.1696   -1.3185    0.0000 O.3     1  UNL1       -0.4578
      6 O          16.1992    3.6929    0.0000 O.3     1  UNL1       -0.3773
      7 O          15.7871    4.4008    0.0000 O.3     1  UNL1       -0.3854
      8 O          14.6114    5.2125    0.0000 O.3     1  UNL1       -0.3920
      9 O          17.4814    3.6621    0.0000 O.2     1  UNL1       -0.2892
     10 O          15.8963   -1.1824    0.0000 O.2     1  UNL1       -0.2512
     11 C          13.9523    1.7430    0.0000 C.3     1  UNL1        0.0480
     12 C          14.8532    1.3092    0.0000 C.3     1  UNL1        0.0984
     13 C          13.7297    2.7180    0.0000 C.3     1  UNL1        0.1013
     14 C          14.3532    3.4998    0.0000 C.3     1  UNL1        0.1479
     15 C          13.0827    1.1696    0.0000 C.3     1  UNL1        0.1089
     16 C          15.7542    1.7430    0.0000 C.3     1  UNL1        0.0465
     17 C          14.9471    0.2718    0.0000 C.3     1  UNL1        0.0269
     18 C          13.1525    0.1303    0.0000 C.3     1  UNL1        0.1593
     19 C          15.9767    2.7180    0.0000 C.3     1  UNL1        0.1650
     20 C          15.3532    3.4998    0.0000 C.3     1  UNL1        0.1252
     21 C          14.0910   -0.3216    0.0000 C.3     1  UNL1        0.1435
     22 C          11.6292    0.5500    0.0000 C.3     1  UNL1        0.3094
     23 C          14.9767    4.2816    0.0000 C.3     1  UNL1        0.0783
     24 C          16.6089    1.2354    0.0000 C.2     1  UNL1       -0.0687
     25 C          15.8530   -0.1517    0.0000 C.3     1  UNL1       -0.0563
     26 C          16.9670    2.8045    0.0000 C.2     1  UNL1        0.1933
     27 C          13.1025   -0.8684    0.0000 C.2     1  UNL1       -0.0421
     28 C          17.3569    1.8901    0.0000 C.2     1  UNL1       -0.0085
     29 C          10.6314    0.4829    0.0000 C.2     1  UNL1        0.0044
     30 C          12.2125   -1.3244    0.0000 C.3     1  UNL1       -0.0411
     31 C          13.0524   -1.8672    0.0000 C.2     1  UNL1       -0.0968
     32 C          18.3319    1.6676    0.0000 C.3     1  UNL1       -0.0366
     33 C          15.0722   -1.7489    0.0000 C.2     1  UNL1        0.3043
     34 C          10.1906   -0.4147    0.0000 C.2     1  UNL1       -0.0585
     35 C          15.1508   -2.7458    0.0000 C.3     1  UNL1        0.0332
     36 C           9.1928   -0.4817    0.0000 C.2     1  UNL1       -0.0657
     37 C           8.7520   -1.3793    0.0000 C.2     1  UNL1       -0.0840
     38 C           7.7543   -1.4464    0.0000 C.3     1  UNL1       -0.0345
     39 C           7.3134   -2.3440    0.0000 C.3     1  UNL1       -0.0496
     40 C           6.3157   -2.4110    0.0000 C.3     1  UNL1       -0.0528
     41 C           5.8749   -3.3086    0.0000 C.3     1  UNL1       -0.0530
     42 C           4.8771   -3.3756    0.0000 C.3     1  UNL1       -0.0531
     43 C           4.4363   -4.2732    0.0000 C.3     1  UNL1       -0.0531
     44 C           3.4386   -4.3403    0.0000 C.3     1  UNL1       -0.0533
     45 C           2.9978   -5.2379    0.0000 C.3     1  UNL1       -0.0559
     46 C           2.0000   -5.3049    0.0000 C.3     1  UNL1       -0.0653
     47 H          13.4274    2.4117    0.0000 H       1  UNL1        0.0381
     48 H          12.9175    2.4673    0.0000 H       1  UNL1        0.0631
     49 H          12.3964    1.6711    0.0000 H       1  UNL1        0.0636
     50 H          15.7172    0.8938    0.0000 H       1  UNL1        0.0405
     51 H          14.9994   -0.3460    0.0000 H       1  UNL1        0.0363
     52 H          15.0234    4.0248    0.0000 H       1  UNL1        0.0657
     53 H          13.5794   -0.6719    0.0000 H       1  UNL1        0.0771
     54 H          15.3870    3.8168    0.0000 H       1  UNL1        0.0588
     55 H          15.5058    4.6049    0.0000 H       1  UNL1        0.0588
     56 H          16.6655    0.6180    0.0000 H       1  UNL1        0.0580
     57 H          15.5905   -0.7133    0.0000 H       1  UNL1        0.0234
     58 H          16.4147   -0.4142    0.0000 H       1  UNL1        0.0234
     59 H          16.1155    0.4100    0.0000 H       1  UNL1        0.0234
     60 H          16.7917    3.8756    0.0000 H       1  UNL1        0.2109
     61 H          15.4379    4.9130    0.0000 H       1  UNL1        0.2100
     62 H          10.2861    0.9979    0.0000 H       1  UNL1        0.0651
     63 H          11.9298   -0.7727    0.0000 H       1  UNL1        0.0275
     64 H          11.6607   -1.6072    0.0000 H       1  UNL1        0.0275
     65 H          12.4952   -1.8762    0.0000 H       1  UNL1        0.0275
     66 H          13.9983    5.3049    0.0000 H       1  UNL1        0.2095
     67 H          12.5006   -2.1499    0.0000 H       1  UNL1        0.0535
     68 H          13.5732   -2.2037    0.0000 H       1  UNL1        0.0535
     69 H          18.1939    1.0631    0.0000 H       1  UNL1        0.0279
     70 H          18.9363    1.5296    0.0000 H       1  UNL1        0.0279
     71 H          18.4698    2.2720    0.0000 H       1  UNL1        0.0279
     72 H          10.5359   -0.9296    0.0000 H       1  UNL1        0.0617
     73 H          14.5327   -2.7946    0.0000 H       1  UNL1        0.0342
     74 H          15.1995   -3.3639    0.0000 H       1  UNL1        0.0342
     75 H          15.7689   -2.6971    0.0000 H       1  UNL1        0.0342
     76 H           8.8475    0.0332    0.0000 H       1  UNL1        0.0614
     77 H           9.0973   -1.8943    0.0000 H       1  UNL1        0.0572
     78 H           7.8208   -0.8299    0.0000 H       1  UNL1        0.0307
     79 H           7.1588   -1.2738    0.0000 H       1  UNL1        0.0307
     80 H           7.2470   -2.9604    0.0000 H       1  UNL1        0.0268
     81 H           7.9090   -2.5165    0.0000 H       1  UNL1        0.0268
     82 H           6.3822   -1.7946    0.0000 H       1  UNL1        0.0265
     83 H           5.7202   -2.2385    0.0000 H       1  UNL1        0.0265
     84 H           5.8084   -3.9250    0.0000 H       1  UNL1        0.0265
     85 H           6.4704   -3.4811    0.0000 H       1  UNL1        0.0265
     86 H           4.9436   -2.7592    0.0000 H       1  UNL1        0.0265
     87 H           4.2816   -3.2031    0.0000 H       1  UNL1        0.0265
     88 H           4.3698   -4.8897    0.0000 H       1  UNL1        0.0265
     89 H           5.0318   -4.4458    0.0000 H       1  UNL1        0.0265
     90 H           3.5050   -3.7238    0.0000 H       1  UNL1        0.0265
     91 H           2.8430   -4.1678    0.0000 H       1  UNL1        0.0265
     92 H           2.9313   -5.8543    0.0000 H       1  UNL1        0.0263
     93 H           3.5933   -5.4104    0.0000 H       1  UNL1        0.0263
     94 H           1.9584   -4.6863    0.0000 H       1  UNL1        0.0230
     95 H           1.3814   -5.3465    0.0000 H       1  UNL1        0.0230
     96 H           2.0416   -5.9235    0.0000 H       1  UNL1        0.0230
@<TRIPOS>BOND
     1     1    13    1
     2     1    14    1
     3    12     2    1
     4     2    22    1
     5     3    15    1
     6     3    22    1
     7     4    18    1
     8     4    22    1
     9    21     5    1
    10     5    33    1
    11    19     6    1
    12     6    60    1
    13    20     7    1
    14     7    61    1
    15     8    23    1
    16     8    66    1
    17     9    26    2
    18    10    33    2
    19    11    12    1
    20    11    13    1
    21    11    15    1
    22    11    47    1
    23    12    16    1
    24    12    17    1
    25    13    14    1
    26    13    48    1
    27    14    20    1
    28    14    23    1
    29    15    18    1
    30    15    49    1
    31    16    19    1
    32    16    24    1
    33    16    50    1
    34    17    21    1
    35    17    25    1
    36    17    51    1
    37    18    21    1
    38    18    27    1
    39    19    20    1
    40    19    26    1
    41    20    52    1
    42    21    53    1
    43    22    29    1
    44    23    54    1
    45    23    55    1
    46    24    28    2
    47    24    56    1
    48    25    57    1
    49    25    58    1
    50    25    59    1
    51    26    28    1
    52    27    30    1
    53    27    31    2
    54    28    32    1
    55    29    34    2
    56    29    62    1
    57    30    63    1
    58    30    64    1
    59    30    65    1
    60    31    67    1
    61    31    68    1
    62    32    69    1
    63    32    70    1
    64    32    71    1
    65    33    35    1
    66    34    36    1
    67    34    72    1
    68    35    73    1
    69    35    74    1
    70    35    75    1
    71    36    37    2
    72    36    76    1
    73    37    38    1
    74    37    77    1
    75    38    39    1
    76    38    78    1
    77    38    79    1
    78    39    40    1
    79    39    80    1
    80    39    81    1
    81    40    41    1
    82    40    82    1
    83    40    83    1
    84    41    42    1
    85    41    84    1
    86    41    85    1
    87    42    43    1
    88    42    86    1
    89    42    87    1
    90    43    44    1
    91    43    88    1
    92    43    89    1
    93    44    45    1
    94    44    90    1
    95    44    91    1
    96    45    46    1
    97    45    92    1
    98    45    93    1
    99    46    94    1
   100    46    95    1
   101    46    96    1
