@<TRIPOS>MOLECULE
IMPHY007015
 77 82 0 0 0
SMALL
GASTEIGER

@<TRIPOS>ATOM
      1 O           5.3079   -2.3476    0.0000 O.3     1  UNL1       -0.3437
      2 O           4.6848   -3.1614    0.0000 O.3     1  UNL1       -0.3633
      3 N           2.7843   -1.1742    0.0000 N.3     1  UNL1       -0.3082
      4 N          11.5747    3.2192    0.0000 N.3     1  UNL1       -0.3272
      5 C           6.2347    0.0748    0.0000 C.3     1  UNL1       -0.0234
      6 C           7.1007   -0.4252    0.0000 C.3     1  UNL1       -0.0298
      7 C           7.9668    0.0748    0.0000 C.3     1  UNL1       -0.0343
      8 C           5.4977   -0.5923    0.0000 C.3     1  UNL1       -0.0048
      9 C           7.9668    1.0748    0.0000 C.3     1  UNL1       -0.0323
     10 C           8.8607    1.6095    0.0000 C.3     1  UNL1       -0.0260
     11 C           5.9028   -1.5001    0.0000 C.3     1  UNL1        0.0659
     12 C           6.8915   -1.3970    0.0000 C.3     1  UNL1       -0.0226
     13 C           6.2347    1.0748    0.0000 C.3     1  UNL1       -0.0467
     14 C           7.1007    1.5748    0.0000 C.3     1  UNL1       -0.0489
     15 C           9.7668    1.0956    0.0000 C.3     1  UNL1       -0.0340
     16 C           4.4696   -0.4691    0.0000 C.3     1  UNL1       -0.0178
     17 C           8.8607   -0.4598    0.0000 C.3     1  UNL1       -0.0494
     18 C           9.7668    0.0540    0.0000 C.3     1  UNL1       -0.0494
     19 C           5.3687    0.5748    0.0000 C.3     1  UNL1       -0.0590
     20 C           3.8552   -1.3026    0.0000 C.3     1  UNL1        0.0648
     21 C           8.8356    2.6942    0.0000 C.3     1  UNL1       -0.0457
     22 C           4.2772   -2.2482    0.0000 C.3     1  UNL1        0.1836
     23 C          10.7106    1.6309    0.0000 C.3     1  UNL1       -0.0344
     24 C           7.9909    2.1028    0.0000 C.3     1  UNL1       -0.0590
     25 C           9.7668    3.2511    0.0000 C.3     1  UNL1       -0.0372
     26 C          10.7106    2.7159    0.0000 C.3     1  UNL1        0.0051
     27 C           4.0727    0.4488    0.0000 C.3     1  UNL1       -0.0605
     28 C           3.6576   -3.1310    0.0000 C.3     1  UNL1        0.0065
     29 C           2.5840   -3.0274    0.0000 C.3     1  UNL1       -0.0264
     30 C           2.1444   -2.0425    0.0000 C.3     1  UNL1       -0.0009
     31 C           2.0000   -3.8392    0.0000 C.3     1  UNL1       -0.0611
     32 H           7.7878   -0.9257    0.0000 H       1  UNL1        0.0310
     33 H           7.9602   -0.7752    0.0000 H       1  UNL1        0.0306
     34 H           5.2399    0.2177    0.0000 H       1  UNL1        0.0334
     35 H           8.7061    0.6555    0.0000 H       1  UNL1        0.0309
     36 H           6.3335   -2.2329    0.0000 H       1  UNL1        0.0600
     37 H           6.8906   -2.0170    0.0000 H       1  UNL1        0.0293
     38 H           7.5080   -1.4630    0.0000 H       1  UNL1        0.0293
     39 H           6.0227    1.6574    0.0000 H       1  UNL1        0.0271
     40 H           5.6241    0.9672    0.0000 H       1  UNL1        0.0271
     41 H           7.4993    2.0498    0.0000 H       1  UNL1        0.0268
     42 H           6.7022    2.0498    0.0000 H       1  UNL1        0.0268
     43 H          10.5013    0.6678    0.0000 H       1  UNL1        0.0307
     44 H           4.8403    0.0279    0.0000 H       1  UNL1        0.0318
     45 H           8.4561   -0.9296    0.0000 H       1  UNL1        0.0268
     46 H           9.2543   -0.9389    0.0000 H       1  UNL1        0.0268
     47 H           9.9758   -0.5297    0.0000 H       1  UNL1        0.0268
     48 H          10.3776    0.1601    0.0000 H       1  UNL1        0.0268
     49 H           5.6787    1.1118    0.0000 H       1  UNL1        0.0235
     50 H           4.8318    0.8848    0.0000 H       1  UNL1        0.0235
     51 H           5.0587    0.0379    0.0000 H       1  UNL1        0.0235
     52 H           3.5178   -0.5224    0.0000 H       1  UNL1        0.0516
     53 H           8.6131    3.2729    0.0000 H       1  UNL1        0.0271
     54 H           8.2274    2.5740    0.0000 H       1  UNL1        0.0271
     55 H          10.9196    1.0472    0.0000 H       1  UNL1        0.0283
     56 H          11.3214    1.7370    0.0000 H       1  UNL1        0.0283
     57 H           8.2967    2.6421    0.0000 H       1  UNL1        0.0235
     58 H           7.4516    2.4086    0.0000 H       1  UNL1        0.0235
     59 H           7.6850    1.5635    0.0000 H       1  UNL1        0.0235
     60 H          10.1604    3.7301    0.0000 H       1  UNL1        0.0280
     61 H           9.3622    3.7209    0.0000 H       1  UNL1        0.0280
     62 H          10.7070    3.3358    0.0000 H       1  UNL1        0.0458
     63 H           4.6417    0.6949    0.0000 H       1  UNL1        0.0233
     64 H           3.8266    1.0178    0.0000 H       1  UNL1        0.0233
     65 H           3.5036    0.2027    0.0000 H       1  UNL1        0.0233
     66 H           3.4933   -3.7288    0.0000 H       1  UNL1        0.0320
     67 H           4.2185   -3.3951    0.0000 H       1  UNL1        0.0320
     68 H           2.5382   -0.6052    0.0000 H       1  UNL1        0.1224
     69 H           1.9672   -2.9643    0.0000 H       1  UNL1        0.0312
     70 H           1.7156   -1.5946    0.0000 H       1  UNL1        0.0427
     71 H           1.6298   -2.3883    0.0000 H       1  UNL1        0.0427
     72 H           4.3208   -3.6633    0.0000 H       1  UNL1        0.2128
     73 H          11.5723    3.8392    0.0000 H       1  UNL1        0.1185
     74 H          12.1128    2.9113    0.0000 H       1  UNL1        0.1185
     75 H           1.4967   -3.4771    0.0000 H       1  UNL1        0.0233
     76 H           1.6379   -4.3425    0.0000 H       1  UNL1        0.0233
     77 H           2.5033   -4.2012    0.0000 H       1  UNL1        0.0233
@<TRIPOS>BOND
     1     1    11    1
     2     1    22    1
     3    22     2    1
     4     2    72    1
     5     3    20    1
     6     3    30    1
     7     3    68    1
     8    26     4    1
     9     4    73    1
    10     4    74    1
    11     5     6    1
    12     5     8    1
    13     5    13    1
    14     5    19    1
    15     6     7    1
    16     6    12    1
    17     6    32    1
    18     7     9    1
    19     7    17    1
    20     7    33    1
    21     8    11    1
    22     8    16    1
    23     8    34    1
    24     9    10    1
    25     9    14    1
    26     9    35    1
    27    10    15    1
    28    10    21    1
    29    10    24    1
    30    11    12    1
    31    11    36    1
    32    12    37    1
    33    12    38    1
    34    13    14    1
    35    13    39    1
    36    13    40    1
    37    14    41    1
    38    14    42    1
    39    15    18    1
    40    15    23    1
    41    15    43    1
    42    16    20    1
    43    16    27    1
    44    16    44    1
    45    17    18    1
    46    17    45    1
    47    17    46    1
    48    18    47    1
    49    18    48    1
    50    19    49    1
    51    19    50    1
    52    19    51    1
    53    20    22    1
    54    20    52    1
    55    21    25    1
    56    21    53    1
    57    21    54    1
    58    22    28    1
    59    23    26    1
    60    23    55    1
    61    23    56    1
    62    24    57    1
    63    24    58    1
    64    24    59    1
    65    25    26    1
    66    25    60    1
    67    25    61    1
    68    26    62    1
    69    27    63    1
    70    27    64    1
    71    27    65    1
    72    28    29    1
    73    28    66    1
    74    28    67    1
    75    29    30    1
    76    29    31    1
    77    29    69    1
    78    30    70    1
    79    30    71    1
    80    31    75    1
    81    31    76    1
    82    31    77    1
