@<TRIPOS>MOLECULE
IMPHY015944
 38 41 0 0 0
SMALL
GASTEIGER

@<TRIPOS>ATOM
      1 O           3.7954    0.4288    0.0000 O.3     1  UNL1       -0.2197
      2 O           4.0426    1.1897    0.0000 O.3     1  UNL1       -0.2228
      3 O           6.5406    0.8733    0.0000 O.3     1  UNL1       -0.4570
      4 O           3.3581   -1.8205    0.0000 O.3     1  UNL1       -0.3855
      5 O           8.2962    0.7585    0.0000 O.2     1  UNL1       -0.2453
      6 C           4.8584    0.5040    0.0000 C.3     1  UNL1        0.0704
      7 C           4.0494   -0.0838    0.0000 C.3     1  UNL1        0.1599
      8 C           4.5494    1.4550    0.0000 C.3     1  UNL1        0.1292
      9 C           5.8021    0.2367    0.0000 C.3     1  UNL1        0.1193
     10 C           4.0120   -1.0639    0.0000 C.3     1  UNL1        0.0992
     11 C           6.1839   -0.6667    0.0000 C.3     1  UNL1        0.0280
     12 C           4.7532   -1.7062    0.0000 C.3     1  UNL1       -0.0204
     13 C           3.2404    0.5040    0.0000 C.2     1  UNL1       -0.0474
     14 C           5.7180   -1.5298    0.0000 C.3     1  UNL1       -0.0399
     15 C           3.5494    1.4550    0.0000 C.2     1  UNL1       -0.0504
     16 C           4.8584    2.4061    0.0000 C.3     1  UNL1       -0.0286
     17 C           3.0128   -1.0244    0.0000 C.3     1  UNL1       -0.0329
     18 C           7.1551   -0.5807    0.0000 C.2     1  UNL1        0.0361
     19 C           7.3751    0.3691    0.0000 C.2     1  UNL1        0.3353
     20 C           7.8113   -1.3353    0.0000 C.2     1  UNL1       -0.0883
     21 H           5.5461    1.0036    0.0000 H       1  UNL1        0.0402
     22 H           5.2394   -0.4004    0.0000 H       1  UNL1        0.0745
     23 H           6.6512   -1.3767    0.0000 H       1  UNL1        0.0387
     24 H           4.9982   -2.2757    0.0000 H       1  UNL1        0.0294
     25 H           4.2528   -2.0722    0.0000 H       1  UNL1        0.0294
     26 H           2.6507    0.3124    0.0000 H       1  UNL1        0.0600
     27 H           6.3156   -1.6950    0.0000 H       1  UNL1        0.0273
     28 H           5.6905   -2.1492    0.0000 H       1  UNL1        0.0273
     29 H           3.1850    1.9566    0.0000 H       1  UNL1        0.0599
     30 H           4.2688    2.5977    0.0000 H       1  UNL1        0.0262
     31 H           5.0500    2.9958    0.0000 H       1  UNL1        0.0262
     32 H           5.4481    2.2145    0.0000 H       1  UNL1        0.0262
     33 H           2.9883   -1.6439    0.0000 H       1  UNL1        0.0258
     34 H           2.3933   -0.9999    0.0000 H       1  UNL1        0.0258
     35 H           3.0373   -0.4049    0.0000 H       1  UNL1        0.0258
     36 H           3.5617   -2.4061    0.0000 H       1  UNL1        0.2103
     37 H           8.4199   -1.2169    0.0000 H       1  UNL1        0.0540
     38 H           7.6096   -1.9216    0.0000 H       1  UNL1        0.0540
@<TRIPOS>BOND
     1     1     2    1
     2     7     1    1
     3     2     8    1
     4     3     9    1
     5     3    19    1
     6    10     4    1
     7     4    36    1
     8     5    19    2
     9     6     7    1
    10     6     8    1
    11     6     9    1
    12     6    21    1
    13     7    10    1
    14     7    13    1
    15     8    15    1
    16     8    16    1
    17     9    11    1
    18     9    22    1
    19    10    12    1
    20    10    17    1
    21    11    14    1
    22    11    18    1
    23    11    23    1
    24    12    14    1
    25    12    24    1
    26    12    25    1
    27    13    15    2
    28    13    26    1
    29    14    27    1
    30    14    28    1
    31    15    29    1
    32    16    30    1
    33    16    31    1
    34    16    32    1
    35    17    33    1
    36    17    34    1
    37    17    35    1
    38    18    19    1
    39    18    20    2
    40    20    37    1
    41    20    38    1
