@<TRIPOS>MOLECULE
IMPHY004758
 45 47 0 0 0
SMALL
GASTEIGER

@<TRIPOS>ATOM
      1 O           8.1424   -0.9202    0.0000 O.2     1  UNL1       -0.4545
      2 O           6.3301    1.8845    0.0000 O.3     1  UNL1       -0.4940
      3 O           4.5981   -1.1155    0.0000 O.3     1  UNL1       -0.5062
      4 O           9.7260   -1.8476    0.0000 O.3     1  UNL1       -0.5059
      5 O          12.7260   -0.1155    0.0000 O.3     1  UNL1       -0.5066
      6 C           7.1962    0.3845    0.0000 C.ar    1  UNL1        0.0629
      7 C           5.4641    0.3845    0.0000 C.ar    1  UNL1        0.0401
      8 C           6.3301    0.8845    0.0000 C.ar    1  UNL1        0.1378
      9 C           7.1962   -0.6155    0.0000 C.ar    1  UNL1        0.1427
     10 C           4.5981    0.8845    0.0000 C.3     1  UNL1       -0.0023
     11 C           8.1424    0.6892    0.0000 C.ar    1  UNL1       -0.0044
     12 C           8.7260   -0.1155    0.0000 C.ar    1  UNL1        0.1399
     13 C           5.4641   -0.6155    0.0000 C.ar    1  UNL1        0.1273
     14 C           6.3301   -1.1155    0.0000 C.ar    1  UNL1        0.0233
     15 C           9.7260   -0.1155    0.0000 C.ar    1  UNL1        0.0589
     16 C           3.7320    0.3845    0.0000 C.2     1  UNL1       -0.0807
     17 C          10.2260   -0.9815    0.0000 C.ar    1  UNL1        0.1310
     18 C           2.8660    0.8845    0.0000 C.2     1  UNL1       -0.0793
     19 C          10.2260    0.7505    0.0000 C.ar    1  UNL1       -0.0441
     20 C          11.2260   -0.9815    0.0000 C.ar    1  UNL1        0.0220
     21 C          11.2260    0.7505    0.0000 C.ar    1  UNL1       -0.0193
     22 C           5.4641    2.3845    0.0000 C.3     1  UNL1        0.0788
     23 C          11.7260   -0.1155    0.0000 C.ar    1  UNL1        0.1204
     24 C           2.0000    0.3845    0.0000 C.3     1  UNL1       -0.0440
     25 C           2.8660    1.8845    0.0000 C.3     1  UNL1       -0.0440
     26 H           4.9966    1.3594    0.0000 H       1  UNL1        0.0358
     27 H           4.1996    1.3594    0.0000 H       1  UNL1        0.0358
     28 H           8.3350    1.2786    0.0000 H       1  UNL1        0.0663
     29 H           6.3301   -1.7355    0.0000 H       1  UNL1        0.0691
     30 H           3.7320   -0.2355    0.0000 H       1  UNL1        0.0575
     31 H           9.9160    1.2874    0.0000 H       1  UNL1        0.0627
     32 H           4.5981   -1.7355    0.0000 H       1  UNL1        0.2921
     33 H          11.5360   -1.5185    0.0000 H       1  UNL1        0.0691
     34 H          11.5360    1.2874    0.0000 H       1  UNL1        0.0654
     35 H           5.7741    2.9214    0.0000 H       1  UNL1        0.0660
     36 H           4.9272    2.6945    0.0000 H       1  UNL1        0.0660
     37 H           5.1541    1.8476    0.0000 H       1  UNL1        0.0660
     38 H           1.6900    0.9214    0.0000 H       1  UNL1        0.0274
     39 H           1.4631    0.0745    0.0000 H       1  UNL1        0.0274
     40 H           3.4860    1.8845    0.0000 H       1  UNL1        0.0274
     41 H           2.8660    2.5045    0.0000 H       1  UNL1        0.0274
     42 H           2.2460    1.8845    0.0000 H       1  UNL1        0.0274
     43 H           2.3100   -0.1524    0.0000 H       1  UNL1        0.0274
     44 H          10.0360   -2.3845    0.0000 H       1  UNL1        0.2922
     45 H          13.0360    0.4214    0.0000 H       1  UNL1        0.2921
@<TRIPOS>BOND
     1     1     9   ar
     2     1    12   ar
     3     2     8    1
     4     2    22    1
     5     3    13    1
     6     3    32    1
     7     4    17    1
     8     4    44    1
     9     5    23    1
    10     5    45    1
    11     6     8   ar
    12     6     9   ar
    13     6    11   ar
    14     7     8   ar
    15     7    10    1
    16     7    13   ar
    17     9    14   ar
    18    10    16    1
    19    10    26    1
    20    10    27    1
    21    11    12   ar
    22    11    28    1
    23    12    15    1
    24    13    14   ar
    25    14    29    1
    26    15    17   ar
    27    15    19   ar
    28    16    18    2
    29    16    30    1
    30    17    20   ar
    31    18    24    1
    32    18    25    1
    33    19    21   ar
    34    19    31    1
    35    20    23   ar
    36    20    33    1
    37    21    23   ar
    38    21    34    1
    39    22    35    1
    40    22    36    1
    41    22    37    1
    42    24    38    1
    43    24    39    1
    44    24    43    1
    45    25    40    1
    46    25    41    1
    47    25    42    1
