@<TRIPOS>MOLECULE
IMPHY008609
 53 55 0 0 0
SMALL
GASTEIGER

@<TRIPOS>ATOM
      1 O           8.0622    1.3100    0.0000 O.3     1  UNL1       -0.3301
      2 O           6.3301   -0.6900    0.0000 O.3     1  UNL1       -0.4529
      3 O           8.0622   -1.6900    0.0000 O.3     1  UNL1       -0.3852
      4 O           9.7942    1.3100    0.0000 O.3     1  UNL1       -0.4608
      5 O           9.7942   -0.6900    0.0000 O.3     1  UNL1       -0.3829
      6 O           6.3301    2.3100    0.0000 O.3     1  UNL1       -0.3923
      7 O           7.1962   -2.1900    0.0000 O.2     1  UNL1       -0.2456
      8 O          10.6603    5.8100    0.0000 O.2     1  UNL1       -0.2957
      9 O           2.0000   -5.1900    0.0000 O.3     1  UNL1       -0.5068
     10 C           7.1962   -0.1900    0.0000 C.3     1  UNL1        0.1599
     11 C           8.0622   -0.6900    0.0000 C.3     1  UNL1        0.1262
     12 C           7.1962    0.8100    0.0000 C.3     1  UNL1        0.1250
     13 C           8.9282   -0.1900    0.0000 C.3     1  UNL1        0.1465
     14 C           8.9282    0.8100    0.0000 C.3     1  UNL1        0.2309
     15 C           6.3301    1.3100    0.0000 C.3     1  UNL1        0.0741
     16 C           9.7942    2.3100    0.0000 C.ar    1  UNL1        0.1240
     17 C           6.3301   -1.6900    0.0000 C.2     1  UNL1        0.3324
     18 C          10.6603    2.8100    0.0000 C.ar    1  UNL1       -0.0192
     19 C           8.9282    2.8100    0.0000 C.ar    1  UNL1       -0.0192
     20 C           5.4641   -2.1900    0.0000 C.2     1  UNL1        0.0231
     21 C          10.6603    3.8100    0.0000 C.ar    1  UNL1       -0.0481
     22 C           8.9282    3.8100    0.0000 C.ar    1  UNL1       -0.0481
     23 C           9.7942    4.3100    0.0000 C.ar    1  UNL1        0.0144
     24 C           5.4641   -3.1900    0.0000 C.2     1  UNL1       -0.0478
     25 C           4.5981   -3.6900    0.0000 C.ar    1  UNL1       -0.0246
     26 C           9.7942    5.3100    0.0000 C.2     1  UNL1        0.1502
     27 C           3.7320   -3.1900    0.0000 C.ar    1  UNL1       -0.0511
     28 C           4.5981   -4.6900    0.0000 C.ar    1  UNL1       -0.0511
     29 C           2.8660   -3.6900    0.0000 C.ar    1  UNL1       -0.0196
     30 C           3.7320   -5.1900    0.0000 C.ar    1  UNL1       -0.0196
     31 C           2.8660   -4.6900    0.0000 C.ar    1  UNL1        0.1169
     32 H           7.1962   -0.8100    0.0000 H       1  UNL1        0.0788
     33 H           8.5991   -1.0000    0.0000 H       1  UNL1        0.0659
     34 H           7.1962    1.4300    0.0000 H       1  UNL1        0.0658
     35 H           8.9282   -0.8100    0.0000 H       1  UNL1        0.0683
     36 H           9.4651    0.5000    0.0000 H       1  UNL1        0.1084
     37 H           5.7196    1.4177    0.0000 H       1  UNL1        0.0584
     38 H           6.1181    0.7274    0.0000 H       1  UNL1        0.0584
     39 H           8.5991   -2.0000    0.0000 H       1  UNL1        0.2101
     40 H          10.3312   -0.3800    0.0000 H       1  UNL1        0.2102
     41 H           5.7932    2.6200    0.0000 H       1  UNL1        0.2095
     42 H          11.1972    2.5000    0.0000 H       1  UNL1        0.0654
     43 H           8.3913    2.5000    0.0000 H       1  UNL1        0.0654
     44 H           4.9272   -1.8800    0.0000 H       1  UNL1        0.0689
     45 H          11.1972    4.1200    0.0000 H       1  UNL1        0.0626
     46 H           8.3913    4.1200    0.0000 H       1  UNL1        0.0626
     47 H           6.0010   -3.5000    0.0000 H       1  UNL1        0.0626
     48 H           9.2573    5.6200    0.0000 H       1  UNL1        0.1081
     49 H           3.7320   -2.5700    0.0000 H       1  UNL1        0.0625
     50 H           5.1350   -5.0000    0.0000 H       1  UNL1        0.0625
     51 H           2.3291   -3.3800    0.0000 H       1  UNL1        0.0654
     52 H           3.7320   -5.8100    0.0000 H       1  UNL1        0.0654
     53 H           2.0000   -5.8100    0.0000 H       1  UNL1        0.2921
@<TRIPOS>BOND
     1     1    12    1
     2     1    14    1
     3    10     2    1
     4     2    17    1
     5    11     3    1
     6     3    39    1
     7    14     4    1
     8     4    16    1
     9    13     5    1
    10     5    40    1
    11     6    15    1
    12     6    41    1
    13     7    17    2
    14     8    26    2
    15     9    31    1
    16     9    53    1
    17    10    11    1
    18    10    12    1
    19    10    32    1
    20    11    13    1
    21    11    33    1
    22    12    15    1
    23    12    34    1
    24    13    14    1
    25    13    35    1
    26    14    36    1
    27    15    37    1
    28    15    38    1
    29    16    18   ar
    30    16    19   ar
    31    17    20    1
    32    18    21   ar
    33    18    42    1
    34    19    22   ar
    35    19    43    1
    36    20    24    2
    37    20    44    1
    38    21    23   ar
    39    21    45    1
    40    22    23   ar
    41    22    46    1
    42    23    26    1
    43    24    25    1
    44    24    47    1
    45    25    27   ar
    46    25    28   ar
    47    26    48    1
    48    27    29   ar
    49    27    49    1
    50    28    30   ar
    51    28    50    1
    52    29    31   ar
    53    29    51    1
    54    30    31   ar
    55    30    52    1
