@<TRIPOS>MOLECULE
IMPHY010341
 68 72 0 0 0
SMALL
GASTEIGER

@<TRIPOS>ATOM
      1 O           7.4149   -1.8600    0.0000 O.3     1  UNL1       -0.4606
      2 O           8.0319    2.4278    0.0000 O.3     1  UNL1       -0.3751
      3 O           9.9229    0.6714    0.0000 O.2     1  UNL1       -0.2892
      4 O           2.0000   -1.8809    0.0000 O.2     1  UNL1       -0.2921
      5 O          10.1027    3.3699    0.0000 O.2     1  UNL1       -0.4707
      6 O           6.5662   -3.3699    0.0000 O.2     1  UNL1       -0.2512
      7 C           6.5271   -0.3286    0.0000 C.3     1  UNL1        0.0305
      8 C           5.6610    0.1714    0.0000 C.3     1  UNL1       -0.0194
      9 C           4.7510   -0.3354    0.0000 C.3     1  UNL1       -0.0061
     10 C           4.7430   -1.3770    0.0000 C.3     1  UNL1       -0.0164
     11 C           7.3931    1.1714    0.0000 C.3     1  UNL1        0.0302
     12 C           6.5431   -1.3701    0.0000 C.3     1  UNL1        0.1126
     13 C           7.3931    0.1714    0.0000 C.2     1  UNL1       -0.0471
     14 C           5.6610    1.1714    0.0000 C.3     1  UNL1       -0.0476
     15 C           5.6451   -1.8978    0.0000 C.3     1  UNL1       -0.0103
     16 C           6.5271    1.6714    0.0000 C.3     1  UNL1       -0.0402
     17 C           3.8076   -1.9267    0.0000 C.3     1  UNL1        0.0311
     18 C           8.3393    1.4762    0.0000 C.3     1  UNL1        0.1641
     19 C           7.3931   -0.8286    0.0000 C.3     1  UNL1       -0.0521
     20 C           4.7587    0.6646    0.0000 C.3     1  UNL1       -0.0555
     21 C           3.8242    0.2287    0.0000 C.2     1  UNL1       -0.0742
     22 C           8.3393   -0.1333    0.0000 C.2     1  UNL1       -0.0154
     23 C           7.3931    2.1714    0.0000 C.3     1  UNL1       -0.0524
     24 C           8.9229    0.6714    0.0000 C.2     1  UNL1        0.1928
     25 C           2.8680   -1.3842    0.0000 C.2     1  UNL1        0.1617
     26 C           2.8763   -0.2993    0.0000 C.2     1  UNL1       -0.0221
     27 C           3.3109   -2.7947    0.0000 C.3     1  UNL1       -0.0525
     28 C           4.3109   -2.7908    0.0000 C.3     1  UNL1       -0.0525
     29 C           9.1493    2.0626    0.0000 C.ar    1  UNL1        0.0299
     30 C           7.4264   -2.8600    0.0000 C.2     1  UNL1        0.3042
     31 C          10.0999    1.7519    0.0000 C.ar    1  UNL1       -0.0175
     32 C           9.1511    3.0626    0.0000 C.ar    1  UNL1        0.0980
     33 C          10.6890    2.5599    0.0000 C.ar    1  UNL1        0.0920
     34 C           8.2982   -3.3499    0.0000 C.3     1  UNL1        0.0332
     35 H           6.3972    0.5964    0.0000 H       1  UNL1        0.0319
     36 H           4.7463   -2.2270    0.0000 H       1  UNL1        0.0320
     37 H           6.5491   -1.9900    0.0000 H       1  UNL1        0.0743
     38 H           5.4490    1.7540    0.0000 H       1  UNL1        0.0269
     39 H           5.0504    1.0638    0.0000 H       1  UNL1        0.0269
     40 H           5.2478   -2.3738    0.0000 H       1  UNL1        0.0304
     41 H           6.0460   -2.3707    0.0000 H       1  UNL1        0.0304
     42 H           6.9256    2.1464    0.0000 H       1  UNL1        0.0275
     43 H           6.1285    2.1464    0.0000 H       1  UNL1        0.0275
     44 H           7.0831   -1.3655    0.0000 H       1  UNL1        0.0239
     45 H           7.9300   -1.1386    0.0000 H       1  UNL1        0.0239
     46 H           7.7031   -0.2916    0.0000 H       1  UNL1        0.0239
     47 H           5.3787    0.6598    0.0000 H       1  UNL1        0.0238
     48 H           4.7635    1.2846    0.0000 H       1  UNL1        0.0238
     49 H           4.1388    0.6693    0.0000 H       1  UNL1        0.0238
     50 H           3.8361    0.8486    0.0000 H       1  UNL1        0.0579
     51 H           8.5319   -0.7226    0.0000 H       1  UNL1        0.0653
     52 H           8.0131    2.1714    0.0000 H       1  UNL1        0.0239
     53 H           7.3931    2.7914    0.0000 H       1  UNL1        0.0239
     54 H           6.7731    2.1714    0.0000 H       1  UNL1        0.0239
     55 H           2.3430    0.0169    0.0000 H       1  UNL1        0.0649
     56 H           2.7728   -2.4867    0.0000 H       1  UNL1        0.0239
     57 H           3.0030   -3.3328    0.0000 H       1  UNL1        0.0239
     58 H           3.8490   -3.1026    0.0000 H       1  UNL1        0.0239
     59 H           3.7752   -3.1029    0.0000 H       1  UNL1        0.0239
     60 H           4.6230   -3.3266    0.0000 H       1  UNL1        0.0239
     61 H           4.8466   -2.4787    0.0000 H       1  UNL1        0.0239
     62 H           8.4476    2.8878    0.0000 H       1  UNL1        0.2113
     63 H          10.2904    1.1619    0.0000 H       1  UNL1        0.0653
     64 H           8.6501    3.4278    0.0000 H       1  UNL1        0.1033
     65 H          11.3090    2.5588    0.0000 H       1  UNL1        0.1029
     66 H           7.9944   -3.8904    0.0000 H       1  UNL1        0.0342
     67 H           8.8387   -3.6537    0.0000 H       1  UNL1        0.0342
     68 H           8.6020   -2.8094    0.0000 H       1  UNL1        0.0342
@<TRIPOS>BOND
     1    12     1    1
     2     1    30    1
     3    18     2    1
     4     2    62    1
     5     3    24    2
     6     4    25    2
     7     5    32   ar
     8     5    33   ar
     9     6    30    2
    10     7     8    1
    11     7    12    1
    12     7    13    1
    13     7    19    1
    14     8     9    1
    15     8    14    1
    16     8    35    1
    17     9    10    1
    18     9    20    1
    19     9    21    1
    20    10    15    1
    21    10    17    1
    22    10    36    1
    23    11    13    1
    24    11    16    1
    25    11    18    1
    26    11    23    1
    27    12    15    1
    28    12    37    1
    29    13    22    2
    30    14    16    1
    31    14    38    1
    32    14    39    1
    33    15    40    1
    34    15    41    1
    35    16    42    1
    36    16    43    1
    37    17    25    1
    38    17    27    1
    39    17    28    1
    40    18    24    1
    41    18    29    1
    42    19    44    1
    43    19    45    1
    44    19    46    1
    45    20    47    1
    46    20    48    1
    47    20    49    1
    48    21    26    2
    49    21    50    1
    50    22    24    1
    51    22    51    1
    52    23    52    1
    53    23    53    1
    54    23    54    1
    55    25    26    1
    56    26    55    1
    57    27    56    1
    58    27    57    1
    59    27    58    1
    60    28    59    1
    61    28    60    1
    62    28    61    1
    63    29    31   ar
    64    29    32   ar
    65    30    34    1
    66    31    33   ar
    67    31    63    1
    68    32    64    1
    69    33    65    1
    70    34    66    1
    71    34    67    1
    72    34    68    1
