@<TRIPOS>MOLECULE
IMPHY007779
 72 73 0 0 0
SMALL
GASTEIGER

@<TRIPOS>ATOM
      1 O           5.7177   -3.6986    0.0000 O.3     1  UNL1       -0.3885
      2 O           5.1418    0.8241    0.0000 O.2     1  UNL1       -0.5096
      3 O           6.8738   -2.1759    0.0000 O.2     1  UNL1       -0.5056
      4 O           8.6059    0.8241    0.0000 O.2     1  UNL1       -0.2908
      5 O           8.6059   -2.1759    0.0000 O.2     1  UNL1       -0.2915
      6 C           4.6419   -2.0419    0.0000 C.3     1  UNL1       -0.0017
      7 C           5.0485   -2.9554    0.0000 C.3     1  UNL1        0.0670
      8 C           3.6473   -2.1465    0.0000 C.3     1  UNL1       -0.0146
      9 C           4.3054   -3.6246    0.0000 C.3     1  UNL1       -0.0234
     10 C           3.4394   -3.1246    0.0000 C.3     1  UNL1       -0.0436
     11 C           5.1418   -1.1759    0.0000 C.3     1  UNL1       -0.0150
     12 C           5.9621   -2.5487    0.0000 C.3     1  UNL1       -0.0358
     13 C           2.9782   -1.4033    0.0000 C.2     1  UNL1       -0.0762
     14 C           6.0078   -0.6759    0.0000 C.2     1  UNL1        0.0333
     15 C           6.8738    0.8241    0.0000 C.3     1  UNL1        0.0915
     16 C           6.0078    0.3241    0.0000 C.2     1  UNL1        0.1143
     17 C           2.0000   -1.6112    0.0000 C.3     1  UNL1       -0.0438
     18 C           6.8738   -1.1759    0.0000 C.2     1  UNL1        0.1371
     19 C           3.2872   -0.4521    0.0000 C.2     1  UNL1       -0.0994
     20 C           7.7399   -0.6759    0.0000 C.2     1  UNL1        0.1026
     21 C           7.7399    0.3241    0.0000 C.2     1  UNL1        0.1834
     22 C           7.3738    1.6902    0.0000 C.3     1  UNL1       -0.0151
     23 C           6.3738    1.6902    0.0000 C.3     1  UNL1       -0.0452
     24 C           8.6059   -1.1759    0.0000 C.2     1  UNL1        0.1728
     25 C           6.8738    2.5562    0.0000 C.2     1  UNL1       -0.0839
     26 C           9.4719   -0.6759    0.0000 C.3     1  UNL1        0.0193
     27 C          10.3380   -1.1759    0.0000 C.3     1  UNL1       -0.0463
     28 C           7.3738    3.4222    0.0000 C.2     1  UNL1       -0.0796
     29 C           9.4719    0.3241    0.0000 C.3     1  UNL1       -0.0554
     30 C          11.2040   -0.6759    0.0000 C.3     1  UNL1       -0.0646
     31 C           6.8738    4.2882    0.0000 C.3     1  UNL1       -0.0440
     32 C           8.3738    3.4222    0.0000 C.3     1  UNL1       -0.0440
     33 H           5.2610   -2.0744    0.0000 H       1  UNL1        0.0337
     34 H           3.0484   -2.3069    0.0000 H       1  UNL1        0.0349
     35 H           3.9410   -4.1262    0.0000 H       1  UNL1        0.0293
     36 H           4.7662   -4.0394    0.0000 H       1  UNL1        0.0293
     37 H           2.8498   -2.9330    0.0000 H       1  UNL1        0.0272
     38 H           3.1873   -3.6910    0.0000 H       1  UNL1        0.0272
     39 H           5.0341   -0.5653    0.0000 H       1  UNL1        0.0319
     40 H           5.5802   -1.6142    0.0000 H       1  UNL1        0.0319
     41 H           6.2143   -3.1151    0.0000 H       1  UNL1        0.0257
     42 H           6.5285   -2.2965    0.0000 H       1  UNL1        0.0257
     43 H           5.7099   -1.9823    0.0000 H       1  UNL1        0.0257
     44 H           5.5261   -4.2882    0.0000 H       1  UNL1        0.2102
     45 H           1.8711   -1.0047    0.0000 H       1  UNL1        0.0274
     46 H           1.3936   -1.7401    0.0000 H       1  UNL1        0.0274
     47 H           2.1289   -2.2176    0.0000 H       1  UNL1        0.0274
     48 H           3.8936   -0.3232    0.0000 H       1  UNL1        0.0534
     49 H           2.8723    0.0086    0.0000 H       1  UNL1        0.0534
     50 H           7.8488    1.2916    0.0000 H       1  UNL1        0.0321
     51 H           7.8488    2.0887    0.0000 H       1  UNL1        0.0321
     52 H           6.9108    2.0002    0.0000 H       1  UNL1        0.0243
     53 H           6.0639    2.2271    0.0000 H       1  UNL1        0.0243
     54 H           5.8369    1.3802    0.0000 H       1  UNL1        0.0243
     55 H           4.6049    0.5141    0.0000 H       1  UNL1        0.2917
     56 H           7.4108   -2.4859    0.0000 H       1  UNL1        0.2922
     57 H           6.2538    2.5562    0.0000 H       1  UNL1        0.0572
     58 H          10.0089   -0.3659    0.0000 H       1  UNL1        0.0378
     59 H           9.9394   -1.6508    0.0000 H       1  UNL1        0.0269
     60 H          10.7365   -1.6508    0.0000 H       1  UNL1        0.0269
     61 H          10.0919    0.3241    0.0000 H       1  UNL1        0.0237
     62 H           9.4719    0.9441    0.0000 H       1  UNL1        0.0237
     63 H           8.8519    0.3241    0.0000 H       1  UNL1        0.0237
     64 H          11.5140   -1.2128    0.0000 H       1  UNL1        0.0230
     65 H          11.7409   -0.3659    0.0000 H       1  UNL1        0.0230
     66 H          10.8940   -0.1389    0.0000 H       1  UNL1        0.0230
     67 H           7.4108    4.5982    0.0000 H       1  UNL1        0.0274
     68 H           6.5638    4.8252    0.0000 H       1  UNL1        0.0274
     69 H           6.3369    3.9782    0.0000 H       1  UNL1        0.0274
     70 H           8.3738    2.8022    0.0000 H       1  UNL1        0.0274
     71 H           8.9938    3.4222    0.0000 H       1  UNL1        0.0274
     72 H           8.3738    4.0422    0.0000 H       1  UNL1        0.0274
@<TRIPOS>BOND
     1     7     1    1
     2     1    44    1
     3     2    16    1
     4     2    55    1
     5     3    18    1
     6     3    56    1
     7     4    21    2
     8     5    24    2
     9     6     7    1
    10     6     8    1
    11     6    11    1
    12     6    33    1
    13     7     9    1
    14     7    12    1
    15     8    10    1
    16     8    13    1
    17     8    34    1
    18     9    10    1
    19     9    35    1
    20     9    36    1
    21    10    37    1
    22    10    38    1
    23    11    14    1
    24    11    39    1
    25    11    40    1
    26    12    41    1
    27    12    42    1
    28    12    43    1
    29    13    17    1
    30    13    19    2
    31    14    16    2
    32    14    18    1
    33    15    16    1
    34    15    21    1
    35    15    22    1
    36    15    23    1
    37    17    45    1
    38    17    46    1
    39    17    47    1
    40    18    20    2
    41    19    48    1
    42    19    49    1
    43    20    21    1
    44    20    24    1
    45    22    25    1
    46    22    50    1
    47    22    51    1
    48    23    52    1
    49    23    53    1
    50    23    54    1
    51    24    26    1
    52    25    28    2
    53    25    57    1
    54    26    27    1
    55    26    29    1
    56    26    58    1
    57    27    30    1
    58    27    59    1
    59    27    60    1
    60    28    31    1
    61    28    32    1
    62    29    61    1
    63    29    62    1
    64    29    63    1
    65    30    64    1
    66    30    65    1
    67    30    66    1
    68    31    67    1
    69    31    68    1
    70    31    69    1
    71    32    70    1
    72    32    71    1
    73    32    72    1
