@<TRIPOS>MOLECULE
IMPHY009055
 57 61 0 0 0
SMALL
GASTEIGER

@<TRIPOS>ATOM
      1 O           4.1197   -3.7240    0.0000 O.3     1  UNL1       -0.3648
      2 O           5.4396    3.1333    0.0000 O.3     1  UNL1       -0.4908
      3 O           6.3002    2.6365    0.0000 O.3     1  UNL1       -0.5029
      4 O           3.6736    4.1711    0.0000 O.3     1  UNL1       -0.4914
      5 O           8.0819    1.6260    0.0000 O.3     1  UNL1       -0.4914
      6 N           3.6698   -1.9674    0.0000 N.3     1  UNL1       -0.2700
      7 C           2.7677   -1.4466    0.0000 C.3     1  UNL1        0.0172
      8 C           2.0000   -2.1414    0.0000 C.3     1  UNL1       -0.0334
      9 C           3.4519   -2.9796    0.0000 C.3     1  UNL1        0.1120
     10 C           2.7757   -0.4050    0.0000 C.3     1  UNL1       -0.0110
     11 C           2.4220   -3.0870    0.0000 C.3     1  UNL1       -0.0114
     12 C           4.5678   -1.4396    0.0000 C.3     1  UNL1        0.0275
     13 C           3.6857    0.1019    0.0000 C.ar    1  UNL1       -0.0331
     14 C           4.5518   -0.3981    0.0000 C.ar    1  UNL1       -0.0216
     15 C           3.6857    1.1019    0.0000 C.ar    1  UNL1       -0.0099
     16 C           5.4178    0.1019    0.0000 C.ar    1  UNL1       -0.0088
     17 C           4.5518    1.6019    0.0000 C.ar    1  UNL1        0.0390
     18 C           5.4178    1.1019    0.0000 C.ar    1  UNL1        0.0388
     19 C           2.7757    1.6087    0.0000 C.ar    1  UNL1       -0.0501
     20 C           6.3117   -0.4328    0.0000 C.ar    1  UNL1       -0.0500
     21 C           4.5678    2.6434    0.0000 C.ar    1  UNL1        0.1698
     22 C           6.3117    1.6366    0.0000 C.ar    1  UNL1        0.1670
     23 C           3.8090   -4.6745    0.0000 C.3     1  UNL1        0.0384
     24 C           2.7677    2.6503    0.0000 C.ar    1  UNL1       -0.0157
     25 C           3.6698    3.1712    0.0000 C.ar    1  UNL1        0.1621
     26 C           7.2178    0.0811    0.0000 C.ar    1  UNL1       -0.0157
     27 C           7.2178    1.1227    0.0000 C.ar    1  UNL1        0.1619
     28 C           5.4511    4.1333    0.0000 C.3     1  UNL1        0.0790
     29 C           2.8095    4.6745    0.0000 C.3     1  UNL1        0.0790
     30 C           8.9498    1.1294    0.0000 C.3     1  UNL1        0.0790
     31 H           2.2020   -1.1929    0.0000 H       1  UNL1        0.0467
     32 H           1.6346   -1.6406    0.0000 H       1  UNL1        0.0282
     33 H           1.4635   -2.4522    0.0000 H       1  UNL1        0.0282
     34 H           3.2289   -3.5582    0.0000 H       1  UNL1        0.0769
     35 H           2.5712    0.1803    0.0000 H       1  UNL1        0.0329
     36 H           2.1641   -0.5063    0.0000 H       1  UNL1        0.0329
     37 H           1.8324   -3.2788    0.0000 H       1  UNL1        0.0304
     38 H           2.5507   -3.6935    0.0000 H       1  UNL1        0.0304
     39 H           4.7858   -2.0200    0.0000 H       1  UNL1        0.0477
     40 H           5.1770   -1.3241    0.0000 H       1  UNL1        0.0477
     41 H           2.2424    1.2925    0.0000 H       1  UNL1        0.0625
     42 H           6.3046   -1.0527    0.0000 H       1  UNL1        0.0625
     43 H           3.2197   -4.4819    0.0000 H       1  UNL1        0.0524
     44 H           3.6164   -5.2638    0.0000 H       1  UNL1        0.0524
     45 H           4.3984   -4.8671    0.0000 H       1  UNL1        0.0524
     46 H           2.2296    2.9583    0.0000 H       1  UNL1        0.0655
     47 H           7.7535   -0.2310    0.0000 H       1  UNL1        0.0655
     48 H           6.8335    2.9527    0.0000 H       1  UNL1        0.2923
     49 H           6.0711    4.1261    0.0000 H       1  UNL1        0.0660
     50 H           5.4583    4.7532    0.0000 H       1  UNL1        0.0660
     51 H           4.8312    4.1405    0.0000 H       1  UNL1        0.0660
     52 H           3.1216    5.2102    0.0000 H       1  UNL1        0.0660
     53 H           2.2738    4.9865    0.0000 H       1  UNL1        0.0660
     54 H           2.4975    4.1387    0.0000 H       1  UNL1        0.0660
     55 H           8.6419    0.5912    0.0000 H       1  UNL1        0.0660
     56 H           9.4880    0.8214    0.0000 H       1  UNL1        0.0660
     57 H           9.2578    1.6675    0.0000 H       1  UNL1        0.0660
@<TRIPOS>BOND
     1     1     9    1
     2     1    23    1
     3     2    21    1
     4     2    28    1
     5     3    22    1
     6     3    48    1
     7     4    25    1
     8     4    29    1
     9     5    27    1
    10     5    30    1
    11     6     7    1
    12     6     9    1
    13     6    12    1
    14     7     8    1
    15     7    10    1
    16     7    31    1
    17     8    11    1
    18     8    32    1
    19     8    33    1
    20     9    11    1
    21     9    34    1
    22    10    13    1
    23    10    35    1
    24    10    36    1
    25    11    37    1
    26    11    38    1
    27    12    14    1
    28    12    39    1
    29    12    40    1
    30    13    14   ar
    31    13    15   ar
    32    14    16   ar
    33    15    17   ar
    34    15    19   ar
    35    16    18   ar
    36    16    20   ar
    37    17    18   ar
    38    17    21   ar
    39    18    22   ar
    40    19    24   ar
    41    19    41    1
    42    20    26   ar
    43    20    42    1
    44    21    25   ar
    45    22    27   ar
    46    23    43    1
    47    23    44    1
    48    23    45    1
    49    24    25   ar
    50    24    46    1
    51    26    27   ar
    52    26    47    1
    53    28    49    1
    54    28    50    1
    55    28    51    1
    56    29    52    1
    57    29    53    1
    58    29    54    1
    59    30    55    1
    60    30    56    1
    61    30    57    1
