@<TRIPOS>MOLECULE
IMPHY009751
 24 23 0 0 0
SMALL
GASTEIGER

@<TRIPOS>ATOM
      1 O           8.0622   -0.2500    0.0000 O.3     1  UNL1       -0.3950
      2 C           4.5981   -0.2500    0.0000 C.3     1  UNL1       -0.0530
      3 C           5.4641    0.2500    0.0000 C.3     1  UNL1       -0.0510
      4 C           3.7320    0.2500    0.0000 C.3     1  UNL1       -0.0533
      5 C           6.3301   -0.2500    0.0000 C.3     1  UNL1       -0.0297
      6 C           2.8660   -0.2500    0.0000 C.3     1  UNL1       -0.0559
      7 C           7.1962    0.2500    0.0000 C.3     1  UNL1        0.0442
      8 C           2.0000    0.2500    0.0000 C.3     1  UNL1       -0.0653
      9 H           4.1996   -0.7249    0.0000 H       1  UNL1        0.0265
     10 H           4.9966   -0.7249    0.0000 H       1  UNL1        0.0265
     11 H           5.8626    0.7249    0.0000 H       1  UNL1        0.0266
     12 H           5.0656    0.7249    0.0000 H       1  UNL1        0.0266
     13 H           4.1306    0.7249    0.0000 H       1  UNL1        0.0265
     14 H           3.3335    0.7249    0.0000 H       1  UNL1        0.0265
     15 H           5.9316   -0.7249    0.0000 H       1  UNL1        0.0287
     16 H           6.7287   -0.7249    0.0000 H       1  UNL1        0.0287
     17 H           2.4675   -0.7249    0.0000 H       1  UNL1        0.0263
     18 H           3.2646   -0.7249    0.0000 H       1  UNL1        0.0263
     19 H           7.5947    0.7249    0.0000 H       1  UNL1        0.0557
     20 H           6.7976    0.7249    0.0000 H       1  UNL1        0.0557
     21 H           2.3100    0.7869    0.0000 H       1  UNL1        0.0230
     22 H           1.4631    0.5600    0.0000 H       1  UNL1        0.0230
     23 H           1.6900   -0.2869    0.0000 H       1  UNL1        0.0230
     24 H           8.5991    0.0600    0.0000 H       1  UNL1        0.2094
@<TRIPOS>BOND
     1     1     7    1
     2     1    24    1
     3     2     3    1
     4     2     4    1
     5     2     9    1
     6     2    10    1
     7     3     5    1
     8     3    11    1
     9     3    12    1
    10     4     6    1
    11     4    13    1
    12     4    14    1
    13     5     7    1
    14     5    15    1
    15     5    16    1
    16     6     8    1
    17     6    17    1
    18     6    18    1
    19     7    19    1
    20     7    20    1
    21     8    21    1
    22     8    22    1
    23     8    23    1
