@<TRIPOS>MOLECULE
IMPHY002858
 25 26 0 0 0
SMALL
GASTEIGER

@<TRIPOS>ATOM
      1 O           6.3580   -0.3020    0.0000 O.2     1  UNL1       -0.4183
      2 O           4.5981   -1.2673    0.0000 O.3     1  UNL1       -0.4885
      3 O           2.8660   -0.2673    0.0000 O.3     1  UNL1       -0.4913
      4 O           8.1282   -0.2915    0.0000 O.2     1  UNL1       -0.2452
      5 C           5.4641    1.2327    0.0000 C.ar    1  UNL1        0.0215
      6 C           5.4641    0.2327    0.0000 C.ar    1  UNL1        0.1841
      7 C           4.5981   -0.2673    0.0000 C.ar    1  UNL1        0.2048
      8 C           3.7320    0.2327    0.0000 C.ar    1  UNL1        0.1652
      9 C           4.5981    1.7327    0.0000 C.ar    1  UNL1       -0.0474
     10 C           3.7320    1.2327    0.0000 C.ar    1  UNL1       -0.0155
     11 C           6.3580    1.7673    0.0000 C.ar    1  UNL1       -0.0442
     12 C           7.2641    1.2535    0.0000 C.ar    1  UNL1        0.0236
     13 C           7.2641    0.2119    0.0000 C.ar    1  UNL1        0.3373
     14 C           3.7320   -1.7673    0.0000 C.3     1  UNL1        0.0791
     15 C           2.0000    0.2327    0.0000 C.3     1  UNL1        0.0790
     16 H           4.5981    2.3527    0.0000 H       1  UNL1        0.0626
     17 H           3.1951    1.5427    0.0000 H       1  UNL1        0.0655
     18 H           6.3509    2.3873    0.0000 H       1  UNL1        0.0627
     19 H           7.7998    1.5656    0.0000 H       1  UNL1        0.0689
     20 H           3.4220   -1.2304    0.0000 H       1  UNL1        0.0660
     21 H           3.1951   -2.0773    0.0000 H       1  UNL1        0.0660
     22 H           4.0420   -2.3043    0.0000 H       1  UNL1        0.0660
     23 H           2.3100    0.7696    0.0000 H       1  UNL1        0.0660
     24 H           1.4631    0.5427    0.0000 H       1  UNL1        0.0660
     25 H           1.6900   -0.3043    0.0000 H       1  UNL1        0.0660
@<TRIPOS>BOND
     1     1     6   ar
     2     1    13   ar
     3     2     7    1
     4     2    14    1
     5     3     8    1
     6     3    15    1
     7     4    13    2
     8     5     6   ar
     9     5     9   ar
    10     5    11   ar
    11     6     7   ar
    12     7     8   ar
    13     8    10   ar
    14     9    10   ar
    15     9    16    1
    16    10    17    1
    17    11    12   ar
    18    11    18    1
    19    12    13   ar
    20    12    19    1
    21    14    20    1
    22    14    21    1
    23    14    22    1
    24    15    23    1
    25    15    24    1
    26    15    25    1
