@<TRIPOS>MOLECULE
IMPHY010459
 77 79 0 0 0
SMALL
GASTEIGER

@<TRIPOS>ATOM
      1 O           6.0010    0.5000    0.0000 O.3     1  UNL1       -0.3484
      2 O           5.1350    2.0000    0.0000 O.3     1  UNL1       -0.3461
      3 O           4.2690   -0.5000    0.0000 O.3     1  UNL1       -0.3841
      4 O           9.4651   -0.5000    0.0000 O.3     1  UNL1       -0.3947
      5 O           2.5369    0.5000    0.0000 O.3     1  UNL1       -0.3864
      6 O           2.5369    2.5000    0.0000 O.3     1  UNL1       -0.3869
      7 O           6.8671    4.0000    0.0000 O.3     1  UNL1       -0.4913
      8 O          10.3312    4.0000    0.0000 O.3     1  UNL1       -0.4913
      9 O           8.5991   -4.0000    0.0000 O.3     1  UNL1       -0.4913
     10 O           5.1350   -4.0000    0.0000 O.3     1  UNL1       -0.4913
     11 O           8.5991    5.0000    0.0000 O.3     1  UNL1       -0.5009
     12 O           6.8671   -5.0000    0.0000 O.3     1  UNL1       -0.5009
     13 C           7.7331    0.5000    0.0000 C.3     1  UNL1       -0.0083
     14 C           7.7331   -0.5000    0.0000 C.3     1  UNL1       -0.0086
     15 C           6.8671    1.0000    0.0000 C.3     1  UNL1        0.0542
     16 C           8.5991    1.0000    0.0000 C.3     1  UNL1       -0.0222
     17 C           6.8671   -1.0000    0.0000 C.3     1  UNL1       -0.0222
     18 C           5.1350    1.0000    0.0000 C.3     1  UNL1        0.1875
     19 C           4.2690    0.5000    0.0000 C.3     1  UNL1        0.1341
     20 C           8.5991   -1.0000    0.0000 C.3     1  UNL1        0.0477
     21 C           3.4030    1.0000    0.0000 C.3     1  UNL1        0.1137
     22 C           3.4030    2.0000    0.0000 C.3     1  UNL1        0.1069
     23 C           4.2690    2.5000    0.0000 C.3     1  UNL1        0.0792
     24 C           8.5991    2.0000    0.0000 C.ar    1  UNL1       -0.0399
     25 C           6.8671   -2.0000    0.0000 C.ar    1  UNL1       -0.0399
     26 C           9.4651    2.5000    0.0000 C.ar    1  UNL1       -0.0129
     27 C           7.7331    2.5000    0.0000 C.ar    1  UNL1       -0.0129
     28 C           6.0010   -2.5000    0.0000 C.ar    1  UNL1       -0.0129
     29 C           7.7331   -2.5000    0.0000 C.ar    1  UNL1       -0.0129
     30 C           7.7331    3.5000    0.0000 C.ar    1  UNL1        0.1652
     31 C           9.4651    3.5000    0.0000 C.ar    1  UNL1        0.1652
     32 C           7.7331   -3.5000    0.0000 C.ar    1  UNL1        0.1652
     33 C           6.0010   -3.5000    0.0000 C.ar    1  UNL1        0.1652
     34 C           8.5991    4.0000    0.0000 C.ar    1  UNL1        0.2010
     35 C           6.8671   -4.0000    0.0000 C.ar    1  UNL1        0.2010
     36 C           6.0010    3.5000    0.0000 C.3     1  UNL1        0.0790
     37 C          11.1972    3.5000    0.0000 C.3     1  UNL1        0.0790
     38 C           9.4651   -3.5000    0.0000 C.3     1  UNL1        0.0790
     39 C           5.1350   -5.0000    0.0000 C.3     1  UNL1        0.0790
     40 H           7.7331    1.1200    0.0000 H       1  UNL1        0.0330
     41 H           7.7331   -1.1200    0.0000 H       1  UNL1        0.0329
     42 H           7.2656    1.4750    0.0000 H       1  UNL1        0.0564
     43 H           6.4685    1.4750    0.0000 H       1  UNL1        0.0564
     44 H           8.8112    0.4174    0.0000 H       1  UNL1        0.0317
     45 H           9.2097    1.1077    0.0000 H       1  UNL1        0.0317
     46 H           6.6550   -0.4174    0.0000 H       1  UNL1        0.0317
     47 H           6.2565   -1.1077    0.0000 H       1  UNL1        0.0317
     48 H           5.1350    0.3800    0.0000 H       1  UNL1        0.0937
     49 H           3.7320    0.1900    0.0000 H       1  UNL1        0.0671
     50 H           8.2006   -1.4750    0.0000 H       1  UNL1        0.0560
     51 H           8.9976   -1.4750    0.0000 H       1  UNL1        0.0560
     52 H           2.8660    1.3100    0.0000 H       1  UNL1        0.0647
     53 H           3.4030    2.6200    0.0000 H       1  UNL1        0.0643
     54 H           4.6675    2.9750    0.0000 H       1  UNL1        0.0587
     55 H           3.8705    2.9750    0.0000 H       1  UNL1        0.0587
     56 H          10.0021    2.1900    0.0000 H       1  UNL1        0.0658
     57 H           7.1962    2.1900    0.0000 H       1  UNL1        0.0658
     58 H           3.7320   -0.8100    0.0000 H       1  UNL1        0.2101
     59 H           5.4641   -2.1900    0.0000 H       1  UNL1        0.0658
     60 H           8.2700   -2.1900    0.0000 H       1  UNL1        0.0658
     61 H          10.0021   -0.8100    0.0000 H       1  UNL1        0.2094
     62 H           2.0000    0.8100    0.0000 H       1  UNL1        0.2100
     63 H           2.5369    3.1200    0.0000 H       1  UNL1        0.2100
     64 H           9.1360    5.3100    0.0000 H       1  UNL1        0.2924
     65 H           7.4040   -5.3100    0.0000 H       1  UNL1        0.2924
     66 H           5.6910    4.0369    0.0000 H       1  UNL1        0.0660
     67 H           5.4641    3.1900    0.0000 H       1  UNL1        0.0660
     68 H           6.3110    2.9631    0.0000 H       1  UNL1        0.0660
     69 H          10.8872    2.9631    0.0000 H       1  UNL1        0.0660
     70 H          11.7341    3.1900    0.0000 H       1  UNL1        0.0660
     71 H          11.5072    4.0369    0.0000 H       1  UNL1        0.0660
     72 H           9.7751   -4.0369    0.0000 H       1  UNL1        0.0660
     73 H          10.0021   -3.1900    0.0000 H       1  UNL1        0.0660
     74 H           9.1551   -2.9631    0.0000 H       1  UNL1        0.0660
     75 H           4.5150   -5.0000    0.0000 H       1  UNL1        0.0660
     76 H           5.1350   -5.6200    0.0000 H       1  UNL1        0.0660
     77 H           5.7550   -5.0000    0.0000 H       1  UNL1        0.0660
@<TRIPOS>BOND
     1     1    15    1
     2    18     1    1
     3     2    18    1
     4     2    23    1
     5    19     3    1
     6     3    58    1
     7     4    20    1
     8     4    61    1
     9    21     5    1
    10     5    62    1
    11    22     6    1
    12     6    63    1
    13     7    30    1
    14     7    36    1
    15     8    31    1
    16     8    37    1
    17     9    32    1
    18     9    38    1
    19    10    33    1
    20    10    39    1
    21    11    34    1
    22    11    64    1
    23    12    35    1
    24    12    65    1
    25    13    14    1
    26    13    15    1
    27    13    16    1
    28    13    40    1
    29    14    17    1
    30    14    20    1
    31    14    41    1
    32    15    42    1
    33    15    43    1
    34    16    24    1
    35    16    44    1
    36    16    45    1
    37    17    25    1
    38    17    46    1
    39    17    47    1
    40    18    19    1
    41    18    48    1
    42    19    21    1
    43    19    49    1
    44    20    50    1
    45    20    51    1
    46    21    22    1
    47    21    52    1
    48    22    23    1
    49    22    53    1
    50    23    54    1
    51    23    55    1
    52    24    26   ar
    53    24    27   ar
    54    25    28   ar
    55    25    29   ar
    56    26    31   ar
    57    26    56    1
    58    27    30   ar
    59    27    57    1
    60    28    33   ar
    61    28    59    1
    62    29    32   ar
    63    29    60    1
    64    30    34   ar
    65    31    34   ar
    66    32    35   ar
    67    33    35   ar
    68    36    66    1
    69    36    67    1
    70    36    68    1
    71    37    69    1
    72    37    70    1
    73    37    71    1
    74    38    72    1
    75    38    73    1
    76    38    74    1
    77    39    75    1
    78    39    76    1
    79    39    77    1
