@<TRIPOS>MOLECULE
IMPHY003273
 44 47 0 0 0
SMALL
GASTEIGER

@<TRIPOS>ATOM
      1 O           2.8660    0.2673    0.0000 O.3     1  UNL1       -0.4944
      2 O           4.5820   -2.7742    0.0000 O.2     1  UNL1       -0.4220
      3 O           8.1282    1.2432    0.0000 O.2     1  UNL1       -0.4911
      4 O           6.3465    0.2327    0.0000 O.2     1  UNL1       -0.2833
      5 O           6.3465    4.3019    0.0000 O.2     1  UNL1       -0.2871
      6 O           5.4762   -4.3019    0.0000 O.2     1  UNL1       -0.2452
      7 C           4.5981    1.2673    0.0000 C.ar    1  UNL1       -0.0025
      8 C           5.4641    1.7673    0.0000 C.ar    1  UNL1        0.0440
      9 C           4.5981    0.2673    0.0000 C.ar    1  UNL1        0.0253
     10 C           5.4641    2.7673    0.0000 C.ar    1  UNL1        0.0335
     11 C           3.7320    1.7673    0.0000 C.ar    1  UNL1       -0.0503
     12 C           3.7320    2.7673    0.0000 C.ar    1  UNL1       -0.0492
     13 C           4.5981    3.2673    0.0000 C.ar    1  UNL1       -0.0473
     14 C           3.7320   -0.2327    0.0000 C.ar    1  UNL1        0.1313
     15 C           5.4641   -0.2327    0.0000 C.ar    1  UNL1       -0.0398
     16 C           6.3580    1.2327    0.0000 C.2     1  UNL1        0.2287
     17 C           5.4641   -1.2327    0.0000 C.ar    1  UNL1        0.0184
     18 C           6.3580    3.3020    0.0000 C.2     1  UNL1        0.1904
     19 C           4.5981   -1.7327    0.0000 C.ar    1  UNL1        0.1426
     20 C           3.7320   -1.2327    0.0000 C.ar    1  UNL1        0.0237
     21 C           7.2641    1.7465    0.0000 C.2     1  UNL1        0.1708
     22 C           7.2641    2.7882    0.0000 C.2     1  UNL1        0.0312
     23 C           2.8660    3.2673    0.0000 C.3     1  UNL1       -0.0397
     24 C           6.3741   -1.7395    0.0000 C.ar    1  UNL1       -0.0443
     25 C           6.3821   -2.7811    0.0000 C.ar    1  UNL1        0.0236
     26 C           5.4800   -3.3019    0.0000 C.ar    1  UNL1        0.3372
     27 C           2.0000   -0.2327    0.0000 C.3     1  UNL1        0.0788
     28 C           8.9962    1.7398    0.0000 C.3     1  UNL1        0.0790
     29 H           3.1951    1.4573    0.0000 H       1  UNL1        0.0626
     30 H           4.5981    3.8873    0.0000 H       1  UNL1        0.0627
     31 H           6.0010    0.0773    0.0000 H       1  UNL1        0.0632
     32 H           3.1951   -1.5427    0.0000 H       1  UNL1        0.0691
     33 H           7.7998    3.1002    0.0000 H       1  UNL1        0.0694
     34 H           3.1760    3.8043    0.0000 H       1  UNL1        0.0278
     35 H           2.3291    3.5773    0.0000 H       1  UNL1        0.0278
     36 H           2.5560    2.7304    0.0000 H       1  UNL1        0.0278
     37 H           6.9074   -1.4233    0.0000 H       1  UNL1        0.0627
     38 H           6.9203   -3.0890    0.0000 H       1  UNL1        0.0689
     39 H           1.6900    0.3043    0.0000 H       1  UNL1        0.0660
     40 H           1.4631   -0.5427    0.0000 H       1  UNL1        0.0660
     41 H           2.3100   -0.7696    0.0000 H       1  UNL1        0.0660
     42 H           9.3041    1.2017    0.0000 H       1  UNL1        0.0660
     43 H           9.5343    2.0478    0.0000 H       1  UNL1        0.0660
     44 H           8.6882    2.2780    0.0000 H       1  UNL1        0.0660
@<TRIPOS>BOND
     1     1    14    1
     2     1    27    1
     3     2    19   ar
     4     2    26   ar
     5     3    21    1
     6     3    28    1
     7     4    16    2
     8     5    18    2
     9     6    26    2
    10     7     8   ar
    11     7     9    1
    12     7    11   ar
    13     8    10   ar
    14     8    16    1
    15     9    14   ar
    16     9    15   ar
    17    10    13   ar
    18    10    18    1
    19    11    12   ar
    20    11    29    1
    21    12    13   ar
    22    12    23    1
    23    13    30    1
    24    14    20   ar
    25    15    17   ar
    26    15    31    1
    27    16    21    1
    28    17    19   ar
    29    17    24   ar
    30    18    22    1
    31    19    20   ar
    32    20    32    1
    33    21    22    2
    34    22    33    1
    35    23    34    1
    36    23    35    1
    37    23    36    1
    38    24    25   ar
    39    24    37    1
    40    25    26   ar
    41    25    38    1
    42    27    39    1
    43    27    40    1
    44    27    41    1
    45    28    42    1
    46    28    43    1
    47    28    44    1
