@<TRIPOS>MOLECULE
IMPHY016055
 31 32 0 0 0
SMALL
GASTEIGER

@<TRIPOS>ATOM
      1 S           5.4641    0.7500    0.0000 S.3     1  UNL1       -0.1499
      2 N           5.4641   -1.2500    0.0000 N.3     1  UNL1       -0.3005
      3 C           4.5981   -0.7500    0.0000 C.3     1  UNL1        0.0232
      4 C           4.5981    0.2500    0.0000 C.3     1  UNL1        0.0455
      5 C           6.3301   -0.7500    0.0000 C.3     1  UNL1        0.0079
      6 C           6.3301    0.2500    0.0000 C.3     1  UNL1        0.0071
      7 C           3.7320   -1.2500    0.0000 C.3     1  UNL1       -0.0482
      8 C           3.7320    0.7500    0.0000 C.ar    1  UNL1       -0.0330
      9 C           5.4641   -2.2500    0.0000 C.3     1  UNL1       -0.0124
     10 C           3.7320    1.7500    0.0000 C.ar    1  UNL1       -0.0575
     11 C           2.8660    0.2500    0.0000 C.ar    1  UNL1       -0.0575
     12 C           2.8660    2.2500    0.0000 C.ar    1  UNL1       -0.0615
     13 C           2.0000    0.7500    0.0000 C.ar    1  UNL1       -0.0615
     14 C           2.0000    1.7500    0.0000 C.ar    1  UNL1       -0.0617
     15 H           4.5981   -1.3700    0.0000 H       1  UNL1        0.0474
     16 H           4.5981    0.8700    0.0000 H       1  UNL1        0.0476
     17 H           6.5422   -1.3326    0.0000 H       1  UNL1        0.0434
     18 H           6.9407   -0.6423    0.0000 H       1  UNL1        0.0434
     19 H           6.9407    0.1423    0.0000 H       1  UNL1        0.0389
     20 H           6.5422    0.8326    0.0000 H       1  UNL1        0.0389
     21 H           3.4220   -0.7131    0.0000 H       1  UNL1        0.0245
     22 H           3.1951   -1.5600    0.0000 H       1  UNL1        0.0245
     23 H           4.0420   -1.7869    0.0000 H       1  UNL1        0.0245
     24 H           4.8441   -2.2500    0.0000 H       1  UNL1        0.0391
     25 H           5.4641   -2.8700    0.0000 H       1  UNL1        0.0391
     26 H           6.0841   -2.2500    0.0000 H       1  UNL1        0.0391
     27 H           4.2690    2.0600    0.0000 H       1  UNL1        0.0621
     28 H           2.8660   -0.3700    0.0000 H       1  UNL1        0.0621
     29 H           2.8660    2.8700    0.0000 H       1  UNL1        0.0618
     30 H           1.4631    0.4400    0.0000 H       1  UNL1        0.0618
     31 H           1.4631    2.0600    0.0000 H       1  UNL1        0.0618
@<TRIPOS>BOND
     1     1     4    1
     2     1     6    1
     3     2     3    1
     4     2     5    1
     5     2     9    1
     6     3     4    1
     7     3     7    1
     8     3    15    1
     9     4     8    1
    10     4    16    1
    11     5     6    1
    12     5    17    1
    13     5    18    1
    14     6    19    1
    15     6    20    1
    16     7    21    1
    17     7    22    1
    18     7    23    1
    19     8    10   ar
    20     8    11   ar
    21     9    24    1
    22     9    25    1
    23     9    26    1
    24    10    12   ar
    25    10    27    1
    26    11    13   ar
    27    11    28    1
    28    12    14   ar
    29    12    29    1
    30    13    14   ar
    31    13    30    1
    32    14    31    1
