@<TRIPOS>MOLECULE
IMPHY001632
 25 25 0 0 0
SMALL
GASTEIGER

@<TRIPOS>ATOM
      1 O           6.3301   -0.9330    0.0000 O.2     1  UNL1       -0.5034
      2 O           4.5981   -1.9330    0.0000 O.2     1  UNL1       -0.2837
      3 O           2.0000    0.5670    0.0000 O.2     1  UNL1       -0.2960
      4 C           4.5981    1.0670    0.0000 C.3     1  UNL1        0.0153
      5 C           3.7320    0.5670    0.0000 C.2     1  UNL1        0.0079
      6 C           5.4641    0.5670    0.0000 C.2     1  UNL1       -0.0286
      7 C           5.0981    1.9330    0.0000 C.3     1  UNL1       -0.0521
      8 C           4.0981    1.9330    0.0000 C.3     1  UNL1       -0.0521
      9 C           3.7320   -0.4330    0.0000 C.2     1  UNL1        0.0069
     10 C           5.4641   -0.4330    0.0000 C.2     1  UNL1        0.1606
     11 C           4.5981   -0.9330    0.0000 C.2     1  UNL1        0.2230
     12 C           2.8660   -0.9330    0.0000 C.3     1  UNL1       -0.0356
     13 C           2.8660    1.0670    0.0000 C.2     1  UNL1        0.1474
     14 H           6.0010    0.8770    0.0000 H       1  UNL1        0.0618
     15 H           4.6350    2.2430    0.0000 H       1  UNL1        0.0241
     16 H           3.7881    2.4700    0.0000 H       1  UNL1        0.0241
     17 H           3.5611    1.6230    0.0000 H       1  UNL1        0.0241
     18 H           5.6350    1.6230    0.0000 H       1  UNL1        0.0241
     19 H           5.4081    2.4700    0.0000 H       1  UNL1        0.0241
     20 H           4.5611    2.2430    0.0000 H       1  UNL1        0.0241
     21 H           2.5560   -0.3961    0.0000 H       1  UNL1        0.0279
     22 H           2.3291   -1.2430    0.0000 H       1  UNL1        0.0279
     23 H           3.1760   -1.4700    0.0000 H       1  UNL1        0.0279
     24 H           2.8660    1.6870    0.0000 H       1  UNL1        0.1078
     25 H           6.8671   -0.6230    0.0000 H       1  UNL1        0.2923
@<TRIPOS>BOND
     1     1    10    1
     2     1    25    1
     3     2    11    2
     4     3    13    2
     5     4     5    1
     6     4     6    1
     7     4     7    1
     8     4     8    1
     9     5     9    2
    10     5    13    1
    11     6    10    2
    12     6    14    1
    13     7    18    1
    14     7    19    1
    15     7    20    1
    16     8    15    1
    17     8    16    1
    18     8    17    1
    19     9    11    1
    20     9    12    1
    21    10    11    1
    22    12    21    1
    23    12    22    1
    24    12    23    1
    25    13    24    1
