@<TRIPOS>MOLECULE
IMPHY004419
 74 77 0 0 0
SMALL
GASTEIGER

@<TRIPOS>ATOM
      1 O           7.7331    0.3858    0.0000 O.3     1  UNL1       -0.3313
      2 O           4.2690   -0.6142    0.0000 O.3     1  UNL1       -0.3405
      3 O           6.0010   -0.6142    0.0000 O.3     1  UNL1       -0.3460
      4 O           6.0010    2.3858    0.0000 O.3     1  UNL1       -0.3865
      5 O           9.4651    0.3858    0.0000 O.3     1  UNL1       -0.4600
      6 O           7.7331    3.3858    0.0000 O.3     1  UNL1       -0.3864
      7 O           9.4651    2.3858    0.0000 O.3     1  UNL1       -0.3829
      8 O           6.0010   -2.6142    0.0000 O.3     1  UNL1       -0.3841
      9 O           4.2690   -3.6142    0.0000 O.3     1  UNL1       -0.3864
     10 O           2.5369   -2.6142    0.0000 O.3     1  UNL1       -0.3865
     11 O           2.5369    0.3858    0.0000 O.3     1  UNL1       -0.3924
     12 O          11.2586    3.4376    0.0000 O.3     1  UNL1       -0.4950
     13 O          10.3519   -1.1214    0.0000 O.3     1  UNL1       -0.5053
     14 O          11.2006   -2.6314    0.0000 O.2     1  UNL1       -0.2922
     15 C           6.8671    0.8858    0.0000 C.3     1  UNL1        0.1144
     16 C           6.8671    1.8858    0.0000 C.3     1  UNL1        0.1120
     17 C           7.7331    2.3858    0.0000 C.3     1  UNL1        0.1152
     18 C           8.5991    1.8858    0.0000 C.3     1  UNL1        0.1454
     19 C           5.1350   -2.1142    0.0000 C.3     1  UNL1        0.1341
     20 C           5.1350   -1.1142    0.0000 C.3     1  UNL1        0.1880
     21 C           4.2690   -2.6142    0.0000 C.3     1  UNL1        0.1141
     22 C           3.4030   -2.1142    0.0000 C.3     1  UNL1        0.1119
     23 C           3.4030   -1.1142    0.0000 C.3     1  UNL1        0.1130
     24 C           8.5991    0.8858    0.0000 C.3     1  UNL1        0.2308
     25 C           6.0010    0.3858    0.0000 C.3     1  UNL1        0.0796
     26 C           2.5369   -0.6142    0.0000 C.3     1  UNL1        0.0730
     27 C          10.3312    0.8858    0.0000 C.ar    1  UNL1        0.1387
     28 C          11.2352    0.3684    0.0000 C.ar    1  UNL1        0.0662
     29 C          10.3352    1.9274    0.0000 C.ar    1  UNL1        0.0226
     30 C          12.1070    0.8584    0.0000 C.ar    1  UNL1       -0.0071
     31 C          11.2237   -0.6315    0.0000 C.ar    1  UNL1        0.1387
     32 C          11.2432    2.4378    0.0000 C.ar    1  UNL1        0.1242
     33 C          12.1351    1.8996    0.0000 C.ar    1  UNL1       -0.0119
     34 C          12.0839   -1.1415    0.0000 C.ar    1  UNL1        0.0621
     35 C          12.9672    0.3484    0.0000 C.ar    1  UNL1       -0.0500
     36 C          12.9556   -0.6515    0.0000 C.ar    1  UNL1       -0.0359
     37 C          13.8158   -1.1615    0.0000 C.3     1  UNL1       -0.0389
     38 C          12.0723   -2.1414    0.0000 C.2     1  UNL1        0.1639
     39 C          12.9325   -2.6514    0.0000 C.3     1  UNL1       -0.0013
     40 C          12.1323    3.9242    0.0000 C.3     1  UNL1        0.0788
     41 H           6.8671    0.2658    0.0000 H       1  UNL1        0.0647
     42 H           6.3301    1.5758    0.0000 H       1  UNL1        0.0647
     43 H           7.1962    2.6958    0.0000 H       1  UNL1        0.0648
     44 H           8.5991    2.5058    0.0000 H       1  UNL1        0.0683
     45 H           5.1350   -2.7342    0.0000 H       1  UNL1        0.0671
     46 H           5.6720   -1.4242    0.0000 H       1  UNL1        0.0937
     47 H           3.7320   -2.9242    0.0000 H       1  UNL1        0.0648
     48 H           2.8660   -1.8042    0.0000 H       1  UNL1        0.0647
     49 H           3.4030   -0.4942    0.0000 H       1  UNL1        0.0647
     50 H           8.5991    0.2658    0.0000 H       1  UNL1        0.1084
     51 H           5.7890    0.9684    0.0000 H       1  UNL1        0.0587
     52 H           5.3905    0.2781    0.0000 H       1  UNL1        0.0587
     53 H           1.9264   -0.5066    0.0000 H       1  UNL1        0.0584
     54 H           2.3249   -1.1968    0.0000 H       1  UNL1        0.0584
     55 H           5.4641    2.0758    0.0000 H       1  UNL1        0.2100
     56 H           7.1962    3.6958    0.0000 H       1  UNL1        0.2100
     57 H           9.4651    3.0058    0.0000 H       1  UNL1        0.2102
     58 H           6.5380   -2.3042    0.0000 H       1  UNL1        0.2101
     59 H           3.7320   -3.9242    0.0000 H       1  UNL1        0.2100
     60 H           2.0000   -2.3042    0.0000 H       1  UNL1        0.2100
     61 H           2.0000    0.6958    0.0000 H       1  UNL1        0.2095
     62 H           9.8006    2.2415    0.0000 H       1  UNL1        0.0691
     63 H          12.6791    2.1972    0.0000 H       1  UNL1        0.0660
     64 H          13.5077    0.6522    0.0000 H       1  UNL1        0.0626
     65 H          13.4996   -1.6948    0.0000 H       1  UNL1        0.0278
     66 H          14.3491   -1.4777    0.0000 H       1  UNL1        0.0278
     67 H          14.1320   -0.6282    0.0000 H       1  UNL1        0.0278
     68 H          10.3448   -1.7414    0.0000 H       1  UNL1        0.2922
     69 H          12.6163   -3.1847    0.0000 H       1  UNL1        0.0309
     70 H          13.4658   -2.9676    0.0000 H       1  UNL1        0.0309
     71 H          13.2487   -2.1181    0.0000 H       1  UNL1        0.0309
     72 H          12.4340    3.3826    0.0000 H       1  UNL1        0.0660
     73 H          12.6739    4.2259    0.0000 H       1  UNL1        0.0660
     74 H          11.8306    4.4659    0.0000 H       1  UNL1        0.0660
@<TRIPOS>BOND
     1     1    15    1
     2     1    24    1
     3     2    20    1
     4     2    23    1
     5    20     3    1
     6     3    25    1
     7    16     4    1
     8     4    55    1
     9    24     5    1
    10     5    27    1
    11    17     6    1
    12     6    56    1
    13    18     7    1
    14     7    57    1
    15    19     8    1
    16     8    58    1
    17    21     9    1
    18     9    59    1
    19    22    10    1
    20    10    60    1
    21    11    26    1
    22    11    61    1
    23    12    32    1
    24    12    40    1
    25    13    31    1
    26    13    68    1
    27    14    38    2
    28    15    16    1
    29    15    25    1
    30    15    41    1
    31    16    17    1
    32    16    42    1
    33    17    18    1
    34    17    43    1
    35    18    24    1
    36    18    44    1
    37    19    20    1
    38    19    21    1
    39    19    45    1
    40    20    46    1
    41    21    22    1
    42    21    47    1
    43    22    23    1
    44    22    48    1
    45    23    26    1
    46    23    49    1
    47    24    50    1
    48    25    51    1
    49    25    52    1
    50    26    53    1
    51    26    54    1
    52    27    28   ar
    53    27    29   ar
    54    28    30   ar
    55    28    31   ar
    56    29    32   ar
    57    29    62    1
    58    30    33   ar
    59    30    35   ar
    60    31    34   ar
    61    32    33   ar
    62    33    63    1
    63    34    36   ar
    64    34    38    1
    65    35    36   ar
    66    35    64    1
    67    36    37    1
    68    37    65    1
    69    37    66    1
    70    37    67    1
    71    38    39    1
    72    39    69    1
    73    39    70    1
    74    39    71    1
    75    40    72    1
    76    40    73    1
    77    40    74    1
