@<TRIPOS>MOLECULE
IMPHY009244
 42 46 0 0 0
SMALL
GASTEIGER

@<TRIPOS>ATOM
      1 O           5.4554   -3.1171    0.0000 O.3     1  UNL1       -0.3390
      2 O           3.7155   -2.0990    0.0000 O.3     1  UNL1       -0.3439
      3 O           6.4440    0.1228    0.0000 O.3     1  UNL1       -0.3889
      4 O           6.3136   -0.5990    0.0000 O.2     1  UNL1       -0.2920
      5 O           5.9476   -2.9651    0.0000 O.2     1  UNL1       -0.2917
      6 O           2.0000    1.3618    0.0000 O.2     1  UNL1       -0.2917
      7 C           4.5816   -0.5990    0.0000 C.3     1  UNL1        0.0724
      8 C           3.7155   -0.0990    0.0000 C.3     1  UNL1        0.0193
      9 C           5.4476   -1.0990    0.0000 C.3     1  UNL1        0.0401
     10 C           3.7155    0.9010    0.0000 C.3     1  UNL1        0.0616
     11 C           5.7519   -0.5990    0.0000 C.3     1  UNL1        0.0864
     12 C           6.3370   -2.6126    0.0000 C.3     1  UNL1        0.0889
     13 C           6.3331   -1.5967    0.0000 C.3     1  UNL1       -0.0133
     14 C           3.7155   -1.0990    0.0000 C.3     1  UNL1        0.0648
     15 C           5.4476   -0.0990    0.0000 C.2     1  UNL1        0.1657
     16 C           5.4476   -2.0990    0.0000 C.2     1  UNL1        0.1929
     17 C           4.5816    1.4010    0.0000 C.2     1  UNL1       -0.0273
     18 C           4.5816   -2.5990    0.0000 C.3     1  UNL1        0.2195
     19 C           2.9785    1.5680    0.0000 C.2     1  UNL1        0.1668
     20 C           2.8495    0.4010    0.0000 C.3     1  UNL1       -0.0480
     21 C           5.4476    0.9010    0.0000 C.2     1  UNL1       -0.0142
     22 C           4.3723    2.3728    0.0000 C.2     1  UNL1       -0.0429
     23 C           3.3836    2.4758    0.0000 C.2     1  UNL1       -0.0151
     24 C           5.0402    3.1171    0.0000 C.3     1  UNL1       -0.0393
     25 H           2.9794   -0.5240    0.0000 H       1  UNL1        0.0350
     26 H           4.7114   -1.5240    0.0000 H       1  UNL1        0.0390
     27 H           6.5774   -0.8017    0.0000 H       1  UNL1        0.0622
     28 H           7.0732   -3.0376    0.0000 H       1  UNL1        0.0623
     29 H           6.9444   -1.7005    0.0000 H       1  UNL1        0.0298
     30 H           6.5399   -1.0123    0.0000 H       1  UNL1        0.0298
     31 H           3.5035   -0.5164    0.0000 H       1  UNL1        0.0571
     32 H           3.1049   -1.2067    0.0000 H       1  UNL1        0.0571
     33 H           4.1523   -3.3327    0.0000 H       1  UNL1        0.0995
     34 H           2.5395    0.9379    0.0000 H       1  UNL1        0.0242
     35 H           2.3126    0.0910    0.0000 H       1  UNL1        0.0242
     36 H           3.1595   -0.1360    0.0000 H       1  UNL1        0.0242
     37 H           5.9845    1.2110    0.0000 H       1  UNL1        0.0656
     38 H           7.0461   -0.0251    0.0000 H       1  UNL1        0.2099
     39 H           3.0736    3.0128    0.0000 H       1  UNL1        0.0655
     40 H           5.5016    2.7030    0.0000 H       1  UNL1        0.0278
     41 H           5.4542    3.5786    0.0000 H       1  UNL1        0.0278
     42 H           4.5787    3.5312    0.0000 H       1  UNL1        0.0278
@<TRIPOS>BOND
     1     1    12    1
     2     1    18    1
     3     2    14    1
     4     2    18    1
     5     3    11    1
     6     3    38    1
     7     4    15    2
     8     5    16    2
     9     6    19    2
    10     7     8    1
    11     7     9    1
    12     7    14    1
    13     7    15    1
    14     8    10    1
    15     8    11    1
    16     8    25    1
    17     9    13    1
    18     9    16    1
    19     9    26    1
    20    10    17    1
    21    10    19    1
    22    10    20    1
    23    11    12    1
    24    11    27    1
    25    12    13    1
    26    12    28    1
    27    13    29    1
    28    13    30    1
    29    14    31    1
    30    14    32    1
    31    15    21    1
    32    16    18    1
    33    17    21    2
    34    17    22    1
    35    18    33    1
    36    19    23    1
    37    20    34    1
    38    20    35    1
    39    20    36    1
    40    21    37    1
    41    22    23    2
    42    22    24    1
    43    23    39    1
    44    24    40    1
    45    24    41    1
    46    24    42    1
