@<TRIPOS>MOLECULE
IMPHY012218
 44 47 0 0 0
SMALL
GASTEIGER

@<TRIPOS>ATOM
      1 I           4.5068    0.0000    0.0000 I       1  UNL1        0.0000
      2 O           9.3629    4.1368    0.0000 O.3     2  UNL2       -0.4526
      3 O           7.9110    3.2986    0.0000 O.3     2  UNL2       -0.4526
      4 O           3.2255    8.9578    0.0000 O.3     2  UNL2       -0.4907
      5 O           1.4061    7.9260    0.0000 O.3     2  UNL2       -0.4914
      6 N           5.9451    7.3801    0.0000 N.ar    2  UNL2       -0.1961
      7 C           6.8111    7.8801    0.0000 C.3     2  UNL2        0.1550
      8 C           7.6772    7.3801    0.0000 C.3     2  UNL2        0.0330
      9 C           5.9451    6.3801    0.0000 C.ar    2  UNL2        0.2159
     10 C           7.6772    6.3801    0.0000 C.ar    2  UNL2       -0.0243
     11 C           6.8111    5.8801    0.0000 C.ar    2  UNL2        0.0533
     12 C           5.0512    7.9148    0.0000 C.ar    2  UNL2        0.1831
     13 C           5.0512    5.8455    0.0000 C.ar    2  UNL2        0.0183
     14 C           4.1451    7.4009    0.0000 C.ar    2  UNL2        0.0909
     15 C           4.1451    6.3593    0.0000 C.ar    2  UNL2       -0.0022
     16 C           8.5872    5.8733    0.0000 C.ar    2  UNL2       -0.0120
     17 C           6.7951    4.8386    0.0000 C.ar    2  UNL2       -0.0025
     18 C           8.5952    4.8317    0.0000 C.ar    2  UNL2        0.1665
     19 C           7.6931    4.3109    0.0000 C.ar    2  UNL2        0.1670
     20 C           3.2140    7.9579    0.0000 C.ar    2  UNL2        0.1748
     21 C           3.2140    5.8024    0.0000 C.ar    2  UNL2       -0.0499
     22 C           2.2702    7.4226    0.0000 C.ar    2  UNL2        0.1623
     23 C           8.9409    3.1912    0.0000 C.3     2  UNL2        0.2332
     24 C           2.2702    6.3376    0.0000 C.ar    2  UNL2       -0.0157
     25 C           2.3653    9.4678    0.0000 C.3     2  UNL2        0.0790
     26 C           0.5381    7.4293    0.0000 C.3     2  UNL2        0.0790
     27 H           7.2097    8.3551    0.0000 H       2  UNL2        0.1034
     28 H           6.4126    8.3551    0.0000 H       2  UNL2        0.1034
     29 H           8.2878    7.2725    0.0000 H       2  UNL2        0.0375
     30 H           7.8892    7.9627    0.0000 H       2  UNL2        0.0375
     31 H           5.0583    8.5347    0.0000 H       2  UNL2        0.1384
     32 H           5.0583    5.2255    0.0000 H       2  UNL2        0.0690
     33 H           9.1205    6.1895    0.0000 H       2  UNL2        0.0658
     34 H           6.2546    4.5348    0.0000 H       2  UNL2        0.0663
     35 H           3.2211    5.1824    0.0000 H       2  UNL2        0.0625
     36 H           8.8122    2.5848    0.0000 H       2  UNL2        0.1166
     37 H           9.5305    2.9995    0.0000 H       2  UNL2        0.1166
     38 H           1.7344    6.0256    0.0000 H       2  UNL2        0.0655
     39 H           2.6815   10.0011    0.0000 H       2  UNL2        0.0660
     40 H           1.8320    9.7840    0.0000 H       2  UNL2        0.0660
     41 H           2.0491    8.9344    0.0000 H       2  UNL2        0.0660
     42 H           0.2302    7.9674    0.0000 H       2  UNL2        0.0660
     43 H           0.0000    7.1214    0.0000 H       2  UNL2        0.0660
     44 H           0.8461    6.8912    0.0000 H       2  UNL2        0.0660
@<TRIPOS>UNITY_ATOM_ATTR
1 1
charge -1
6 1
charge 1
@<TRIPOS>BOND
     1     2    18    1
     2     2    23    1
     3     3    19    1
     4     3    23    1
     5     4    20    1
     6     4    25    1
     7     5    22    1
     8     5    26    1
     9     6     7    1
    10     6     9   ar
    11     6    12   ar
    12     7     8    1
    13     7    27    1
    14     7    28    1
    15     8    10    1
    16     8    29    1
    17     8    30    1
    18     9    11    1
    19     9    13   ar
    20    10    11   ar
    21    10    16   ar
    22    11    17   ar
    23    12    14   ar
    24    12    31    1
    25    13    15   ar
    26    13    32    1
    27    14    15   ar
    28    14    20   ar
    29    15    21   ar
    30    16    18   ar
    31    16    33    1
    32    17    19   ar
    33    17    34    1
    34    18    19   ar
    35    20    22   ar
    36    21    24   ar
    37    21    35    1
    38    22    24   ar
    39    23    36    1
    40    23    37    1
    41    24    38    1
    42    25    39    1
    43    25    40    1
    44    25    41    1
    45    26    42    1
    46    26    43    1
    47    26    44    1
