@<TRIPOS>MOLECULE
IMPHY013713
 43 45 0 0 0
SMALL
GASTEIGER

@<TRIPOS>ATOM
      1 O           6.9427    4.5516    0.0000 O.2     1  UNL1       -0.2873
      2 O           2.2788   -2.7915    0.0000 O.3     1  UNL1       -0.4229
      3 O           2.0000   -4.5516    0.0000 O.2     1  UNL1       -0.2449
      4 N           4.8198    1.7963    0.0000 N.pl3   1  UNL1       -0.3325
      5 C           5.6859    2.2963    0.0000 C.2     1  UNL1        0.0178
      6 C           3.9538    2.2963    0.0000 C.3     1  UNL1        0.0122
      7 C           5.6859    3.2963    0.0000 C.2     1  UNL1        0.0168
      8 C           3.9538    3.2963    0.0000 C.3     1  UNL1       -0.0331
      9 C           4.8198    3.7963    0.0000 C.3     1  UNL1       -0.0212
     10 C           6.6321    1.9916    0.0000 C.3     1  UNL1        0.0140
     11 C           4.8198    0.7963    0.0000 C.3     1  UNL1        0.0122
     12 C           6.6321    3.6010    0.0000 C.2     1  UNL1        0.1865
     13 C           7.2157    2.7963    0.0000 C.2     1  UNL1       -0.0020
     14 C           3.9538    0.2963    0.0000 C.3     1  UNL1       -0.0337
     15 C           3.9538   -0.7037    0.0000 C.3     1  UNL1       -0.0296
     16 C           8.2157    2.7963    0.0000 C.2     1  UNL1       -0.0915
     17 C           3.0878   -1.2037    0.0000 C.2     1  UNL1       -0.0414
     18 C           3.0878   -2.2037    0.0000 C.2     1  UNL1        0.1285
     19 C           3.8968   -2.7915    0.0000 C.2     1  UNL1       -0.0098
     20 C           3.5878   -3.7425    0.0000 C.2     1  UNL1        0.0374
     21 C           2.5878   -3.7425    0.0000 C.2     1  UNL1        0.3402
     22 C           4.1756   -4.5516    0.0000 C.3     1  UNL1       -0.0328
     23 H           3.3432    2.4040    0.0000 H       1  UNL1        0.0464
     24 H           3.7418    1.7137    0.0000 H       1  UNL1        0.0464
     25 H           3.7418    3.8789    0.0000 H       1  UNL1        0.0283
     26 H           3.3432    3.1886    0.0000 H       1  UNL1        0.0283
     27 H           5.2184    4.2712    0.0000 H       1  UNL1        0.0315
     28 H           4.4213    4.2712    0.0000 H       1  UNL1        0.0315
     29 H           6.3810    1.4247    0.0000 H       1  UNL1        0.0375
     30 H           7.1695    1.6824    0.0000 H       1  UNL1        0.0375
     31 H           5.0319    0.2137    0.0000 H       1  UNL1        0.0464
     32 H           5.4304    0.9040    0.0000 H       1  UNL1        0.0464
     33 H           3.7418    0.8789    0.0000 H       1  UNL1        0.0283
     34 H           3.3432    0.1886    0.0000 H       1  UNL1        0.0283
     35 H           4.1659   -1.2863    0.0000 H       1  UNL1        0.0309
     36 H           4.5644   -0.5960    0.0000 H       1  UNL1        0.0309
     37 H           8.5257    2.2594    0.0000 H       1  UNL1        0.0539
     38 H           8.5257    3.3332    0.0000 H       1  UNL1        0.0539
     39 H           2.5508   -0.8937    0.0000 H       1  UNL1        0.0608
     40 H           4.4865   -2.5999    0.0000 H       1  UNL1        0.0659
     41 H           3.6740   -4.9160    0.0000 H       1  UNL1        0.0280
     42 H           4.5400   -5.0531    0.0000 H       1  UNL1        0.0280
     43 H           4.6772   -4.1871    0.0000 H       1  UNL1        0.0280
@<TRIPOS>BOND
     1     1    12    2
     2     2    18    1
     3     2    21    1
     4     3    21    2
     5     4     5    1
     6     4     6    1
     7     4    11    1
     8     5     7    2
     9     5    10    1
    10     6     8    1
    11     6    23    1
    12     6    24    1
    13     7     9    1
    14     7    12    1
    15     8     9    1
    16     8    25    1
    17     8    26    1
    18     9    27    1
    19     9    28    1
    20    10    13    1
    21    10    29    1
    22    10    30    1
    23    11    14    1
    24    11    31    1
    25    11    32    1
    26    12    13    1
    27    13    16    2
    28    14    15    1
    29    14    33    1
    30    14    34    1
    31    15    17    1
    32    15    35    1
    33    15    36    1
    34    16    37    1
    35    16    38    1
    36    17    18    2
    37    17    39    1
    38    18    19    1
    39    19    20    2
    40    19    40    1
    41    20    21    1
    42    20    22    1
    43    22    41    1
    44    22    42    1
    45    22    43    1
