@<TRIPOS>MOLECULE
IMPHY016949
 23 23 0 0 0
SMALL
GASTEIGER

@<TRIPOS>ATOM
      1 O           2.0000    1.0000    0.0000 O.2     1  UNL1       -0.2921
      2 C           3.7320    1.0000    0.0000 C.3     1  UNL1        0.0102
      3 C           3.7320    2.0000    0.0000 C.3     1  UNL1       -0.0489
      4 C           2.8660    0.5000    0.0000 C.2     1  UNL1        0.1632
      5 C           2.8660   -0.5000    0.0000 C.ar    1  UNL1        0.0174
      6 C           4.5981    2.5000    0.0000 C.3     1  UNL1       -0.0649
      7 C           2.0000   -1.0000    0.0000 C.ar    1  UNL1       -0.0513
      8 C           3.7320   -1.0000    0.0000 C.ar    1  UNL1       -0.0513
      9 C           2.0000   -2.0000    0.0000 C.ar    1  UNL1       -0.0611
     10 C           3.7320   -2.0000    0.0000 C.ar    1  UNL1       -0.0611
     11 C           2.8660   -2.5000    0.0000 C.ar    1  UNL1       -0.0617
     12 H           3.9441    0.4174    0.0000 H       1  UNL1        0.0345
     13 H           4.3426    1.1077    0.0000 H       1  UNL1        0.0345
     14 H           3.5200    2.5826    0.0000 H       1  UNL1        0.0267
     15 H           3.1215    1.8923    0.0000 H       1  UNL1        0.0267
     16 H           4.9081    1.9631    0.0000 H       1  UNL1        0.0230
     17 H           5.1350    2.8100    0.0000 H       1  UNL1        0.0230
     18 H           4.2881    3.0369    0.0000 H       1  UNL1        0.0230
     19 H           1.4631   -0.6900    0.0000 H       1  UNL1        0.0624
     20 H           4.2690   -0.6900    0.0000 H       1  UNL1        0.0624
     21 H           1.4631   -2.3100    0.0000 H       1  UNL1        0.0618
     22 H           4.2690   -2.3100    0.0000 H       1  UNL1        0.0618
     23 H           2.8660   -3.1200    0.0000 H       1  UNL1        0.0618
@<TRIPOS>BOND
     1     1     4    2
     2     2     3    1
     3     2     4    1
     4     2    12    1
     5     2    13    1
     6     3     6    1
     7     3    14    1
     8     3    15    1
     9     4     5    1
    10     5     7   ar
    11     5     8   ar
    12     6    16    1
    13     6    17    1
    14     6    18    1
    15     7     9   ar
    16     7    19    1
    17     8    10   ar
    18     8    20    1
    19     9    11   ar
    20     9    21    1
    21    10    11   ar
    22    10    22    1
    23    11    23    1
