@<TRIPOS>MOLECULE
IMPHY012895
 12 11 0 0 0
SMALL
GASTEIGER

@<TRIPOS>ATOM
      1 O           2.0000   -0.2500    0.0000 O.2     1  UNL1       -0.2963
      2 C           4.5981    0.2500    0.0000 C.2     1  UNL1       -0.0593
      3 C           3.7320   -0.2500    0.0000 C.2     1  UNL1       -0.0225
      4 C           5.4641   -0.2500    0.0000 C.2     1  UNL1       -0.0688
      5 C           2.8660    0.2500    0.0000 C.2     1  UNL1        0.1431
      6 C           6.3301    0.2500    0.0000 C.2     1  UNL1       -0.0987
      7 H           4.5981    0.8700    0.0000 H       1  UNL1        0.0618
      8 H           3.7320   -0.8700    0.0000 H       1  UNL1        0.0649
      9 H           5.4641   -0.8700    0.0000 H       1  UNL1        0.0612
     10 H           2.8660    0.8700    0.0000 H       1  UNL1        0.1075
     11 H           6.8671   -0.0600    0.0000 H       1  UNL1        0.0535
     12 H           6.3301    0.8700    0.0000 H       1  UNL1        0.0535
@<TRIPOS>BOND
     1     1     5    2
     2     2     3    2
     3     2     4    1
     4     2     7    1
     5     3     5    1
     6     3     8    1
     7     4     6    2
     8     4     9    1
     9     5    10    1
    10     6    11    1
    11     6    12    1
