@<TRIPOS>MOLECULE
IMPHY006403
 60 60 0 0 0
SMALL
GASTEIGER

@<TRIPOS>ATOM
      1 O           2.5369   -4.2500    0.0000 O.2     1  UNL1       -0.5029
      2 O           6.0010   -4.2500    0.0000 O.2     1  UNL1       -0.2836
      3 O           6.0010   -6.2500    0.0000 O.2     1  UNL1       -0.4911
      4 O           2.5369   -6.2500    0.0000 O.2     1  UNL1       -0.2839
      5 C           6.0010   -0.2500    0.0000 C.3     1  UNL1       -0.0531
      6 C           6.0010   -1.2500    0.0000 C.3     1  UNL1       -0.0530
      7 C           6.8671    0.2500    0.0000 C.3     1  UNL1       -0.0530
      8 C           5.1350   -1.7500    0.0000 C.3     1  UNL1       -0.0528
      9 C           6.8671    1.2500    0.0000 C.3     1  UNL1       -0.0528
     10 C           5.1350   -2.7500    0.0000 C.3     1  UNL1       -0.0488
     11 C           7.7331    1.7500    0.0000 C.3     1  UNL1       -0.0496
     12 C           4.2690   -3.2500    0.0000 C.3     1  UNL1       -0.0203
     13 C           7.7331    2.7500    0.0000 C.3     1  UNL1       -0.0348
     14 C           4.2690   -4.2500    0.0000 C.2     1  UNL1        0.0481
     15 C           8.5991    3.2500    0.0000 C.2     1  UNL1       -0.0879
     16 C           3.4030   -4.7500    0.0000 C.2     1  UNL1        0.1707
     17 C           5.1350   -4.7500    0.0000 C.2     1  UNL1        0.2271
     18 C           7.7331    4.7500    0.0000 C.3     1  UNL1       -0.0348
     19 C           8.5991    4.2500    0.0000 C.2     1  UNL1       -0.0879
     20 C           7.7331    5.7500    0.0000 C.3     1  UNL1       -0.0499
     21 C           5.1350   -5.7500    0.0000 C.2     1  UNL1        0.1707
     22 C           6.8671    6.2500    0.0000 C.3     1  UNL1       -0.0556
     23 C           3.4030   -5.7500    0.0000 C.2     1  UNL1        0.2240
     24 C           4.2690   -6.2500    0.0000 C.2     1  UNL1        0.0343
     25 C           6.8671    7.2500    0.0000 C.3     1  UNL1       -0.0653
     26 C           6.0010   -7.2500    0.0000 C.3     1  UNL1        0.0790
     27 H           5.7890    0.3326    0.0000 H       1  UNL1        0.0265
     28 H           5.3905   -0.3577    0.0000 H       1  UNL1        0.0265
     29 H           6.2131   -1.8326    0.0000 H       1  UNL1        0.0265
     30 H           6.6116   -1.1423    0.0000 H       1  UNL1        0.0265
     31 H           7.0791   -0.3326    0.0000 H       1  UNL1        0.0265
     32 H           7.4776    0.3577    0.0000 H       1  UNL1        0.0265
     33 H           4.9230   -1.1674    0.0000 H       1  UNL1        0.0265
     34 H           4.5244   -1.8577    0.0000 H       1  UNL1        0.0265
     35 H           6.6550    1.8326    0.0000 H       1  UNL1        0.0265
     36 H           6.2565    1.1423    0.0000 H       1  UNL1        0.0265
     37 H           5.3471   -3.3326    0.0000 H       1  UNL1        0.0268
     38 H           5.7456   -2.6423    0.0000 H       1  UNL1        0.0268
     39 H           7.9451    1.1674    0.0000 H       1  UNL1        0.0268
     40 H           8.3437    1.8577    0.0000 H       1  UNL1        0.0268
     41 H           4.0569   -2.6674    0.0000 H       1  UNL1        0.0316
     42 H           3.6584   -3.3577    0.0000 H       1  UNL1        0.0316
     43 H           7.5210    3.3326    0.0000 H       1  UNL1        0.0307
     44 H           7.1225    2.6423    0.0000 H       1  UNL1        0.0307
     45 H           9.1360    2.9400    0.0000 H       1  UNL1        0.0569
     46 H           7.1225    4.8577    0.0000 H       1  UNL1        0.0307
     47 H           7.5210    4.1674    0.0000 H       1  UNL1        0.0307
     48 H           9.1360    4.5600    0.0000 H       1  UNL1        0.0569
     49 H           8.3437    5.6423    0.0000 H       1  UNL1        0.0268
     50 H           7.9451    6.3326    0.0000 H       1  UNL1        0.0268
     51 H           6.2565    6.3577    0.0000 H       1  UNL1        0.0263
     52 H           6.6550    5.6674    0.0000 H       1  UNL1        0.0263
     53 H           4.2690   -6.8700    0.0000 H       1  UNL1        0.0695
     54 H           7.4871    7.2500    0.0000 H       1  UNL1        0.0230
     55 H           6.8671    7.8700    0.0000 H       1  UNL1        0.0230
     56 H           6.2471    7.2500    0.0000 H       1  UNL1        0.0230
     57 H           2.0000   -4.5600    0.0000 H       1  UNL1        0.2923
     58 H           5.3810   -7.2500    0.0000 H       1  UNL1        0.0660
     59 H           6.0010   -7.8700    0.0000 H       1  UNL1        0.0660
     60 H           6.6210   -7.2500    0.0000 H       1  UNL1        0.0660
@<TRIPOS>BOND
     1     1    16    1
     2     1    57    1
     3     2    17    2
     4     3    21    1
     5     3    26    1
     6     4    23    2
     7     5     6    1
     8     5     7    1
     9     5    27    1
    10     5    28    1
    11     6     8    1
    12     6    29    1
    13     6    30    1
    14     7     9    1
    15     7    31    1
    16     7    32    1
    17     8    10    1
    18     8    33    1
    19     8    34    1
    20     9    11    1
    21     9    35    1
    22     9    36    1
    23    10    12    1
    24    10    37    1
    25    10    38    1
    26    11    13    1
    27    11    39    1
    28    11    40    1
    29    12    14    1
    30    12    41    1
    31    12    42    1
    32    13    15    1
    33    13    43    1
    34    13    44    1
    35    14    16    2
    36    14    17    1
    37    15    19    2
    38    15    45    1
    39    16    23    1
    40    17    21    1
    41    18    19    1
    42    18    20    1
    43    18    46    1
    44    18    47    1
    45    19    48    1
    46    20    22    1
    47    20    49    1
    48    20    50    1
    49    21    24    2
    50    22    25    1
    51    22    51    1
    52    22    52    1
    53    23    24    1
    54    24    53    1
    55    25    54    1
    56    25    55    1
    57    25    56    1
    58    26    58    1
    59    26    59    1
    60    26    60    1
