@<TRIPOS>MOLECULE
IMPHY011123
 107 109 0 0 0
SMALL
GASTEIGER

@<TRIPOS>ATOM
      1 O          12.2311    2.0259    0.0000 O.3     1  UNL1       -0.3683
      2 O          14.3002    1.3536    0.0000 O.3     1  UNL1       -0.3708
      3 O          10.2631    1.3265    0.0000 O.3     1  UNL1       -0.3892
      4 O           6.8747    2.0467    0.0000 O.2     1  UNL1       -0.2974
      5 O          27.8545   -2.9197    0.0000 O.3     1  UNL1       -0.4542
      6 O          26.4696   -1.7983    0.0000 O.2     1  UNL1       -0.2453
      7 C          13.0401    2.6137    0.0000 C.3     1  UNL1        0.0853
      8 C          13.9912    2.3046    0.0000 C.3     1  UNL1        0.0852
      9 C          12.7311    3.5647    0.0000 C.3     1  UNL1       -0.0217
     10 C          14.8002    2.8924    0.0000 C.3     1  UNL1       -0.0218
     11 C          11.4221    2.6137    0.0000 C.3     1  UNL1        0.0850
     12 C          15.3002    1.3536    0.0000 C.3     1  UNL1        0.0592
     13 C          11.7311    3.5647    0.0000 C.3     1  UNL1       -0.0217
     14 C          15.6092    2.3046    0.0000 C.3     1  UNL1       -0.0242
     15 C          10.4710    2.3046    0.0000 C.3     1  UNL1        0.0813
     16 C          15.8880    0.5446    0.0000 C.3     1  UNL1       -0.0266
     17 C           9.7279    2.9738    0.0000 C.3     1  UNL1       -0.0240
     18 C          16.8825    0.6491    0.0000 C.3     1  UNL1       -0.0507
     19 C          17.4703   -0.1599    0.0000 C.3     1  UNL1       -0.0530
     20 C           8.7768    2.6648    0.0000 C.3     1  UNL1       -0.0440
     21 C          18.4648   -0.0554    0.0000 C.3     1  UNL1       -0.0531
     22 C           8.0337    3.3339    0.0000 C.3     1  UNL1        0.0059
     23 C          19.0526   -0.8644    0.0000 C.3     1  UNL1       -0.0531
     24 C          20.0471   -0.7599    0.0000 C.3     1  UNL1       -0.0531
     25 C           7.0826    3.0249    0.0000 C.2     1  UNL1        0.1334
     26 C          20.6349   -1.5689    0.0000 C.3     1  UNL1       -0.0531
     27 C           6.3395    3.6940    0.0000 C.3     1  UNL1        0.0058
     28 C          21.6294   -1.4644    0.0000 C.3     1  UNL1       -0.0531
     29 C          22.2172   -2.2734    0.0000 C.3     1  UNL1       -0.0531
     30 C           5.3884    3.3850    0.0000 C.3     1  UNL1       -0.0464
     31 C          23.2117   -2.1688    0.0000 C.3     1  UNL1       -0.0530
     32 C           4.6453    4.0541    0.0000 C.3     1  UNL1       -0.0527
     33 C          23.7995   -2.9779    0.0000 C.3     1  UNL1       -0.0528
     34 C          24.7940   -2.8733    0.0000 C.3     1  UNL1       -0.0488
     35 C           3.6942    3.7451    0.0000 C.3     1  UNL1       -0.0533
     36 C          25.3818   -3.6824    0.0000 C.3     1  UNL1       -0.0211
     37 C           2.9511    4.4142    0.0000 C.3     1  UNL1       -0.0559
     38 C          26.3763   -3.5778    0.0000 C.2     1  UNL1        0.0361
     39 C          27.0455   -4.3210    0.0000 C.2     1  UNL1       -0.0343
     40 C          27.9590   -3.9142    0.0000 C.3     1  UNL1        0.1195
     41 C           2.0000    4.1052    0.0000 C.3     1  UNL1       -0.0653
     42 C          26.8763   -2.7118    0.0000 C.2     1  UNL1        0.3355
     43 C          28.8250   -4.4142    0.0000 C.3     1  UNL1       -0.0240
     44 H          13.1371    2.0013    0.0000 H       1  UNL1        0.0622
     45 H          13.5527    1.8662    0.0000 H       1  UNL1        0.0622
     46 H          13.3375    3.6936    0.0000 H       1  UNL1        0.0292
     47 H          12.6663    4.1813    0.0000 H       1  UNL1        0.0292
     48 H          15.2150    3.3532    0.0000 H       1  UNL1        0.0292
     49 H          14.3853    3.3532    0.0000 H       1  UNL1        0.0292
     50 H          11.3251    2.0013    0.0000 H       1  UNL1        0.0622
     51 H          15.0187    0.8012    0.0000 H       1  UNL1        0.0596
     52 H          11.7959    4.1813    0.0000 H       1  UNL1        0.0292
     53 H          11.1246    3.6936    0.0000 H       1  UNL1        0.0292
     54 H          16.1756    2.0525    0.0000 H       1  UNL1        0.0291
     55 H          15.9192    2.8416    0.0000 H       1  UNL1        0.0291
     56 H           9.8814    2.1131    0.0000 H       1  UNL1        0.0619
     57 H          15.3307    0.2728    0.0000 H       1  UNL1        0.0290
     58 H          16.0589   -0.0514    0.0000 H       1  UNL1        0.0290
     59 H          10.2164    3.3555    0.0000 H       1  UNL1        0.0291
     60 H           9.4368    3.5212    0.0000 H       1  UNL1        0.0291
     61 H          17.4397    0.9209    0.0000 H       1  UNL1        0.0266
     62 H          16.7116    1.2451    0.0000 H       1  UNL1        0.0266
     63 H          16.9130   -0.4317    0.0000 H       1  UNL1        0.0265
     64 H          17.6412   -0.7559    0.0000 H       1  UNL1        0.0265
     65 H           8.2882    2.2830    0.0000 H       1  UNL1        0.0270
     66 H           9.0679    2.1173    0.0000 H       1  UNL1        0.0270
     67 H           9.6734    1.1349    0.0000 H       1  UNL1        0.2099
     68 H          19.0220    0.2164    0.0000 H       1  UNL1        0.0265
     69 H          18.2939    0.5406    0.0000 H       1  UNL1        0.0265
     70 H           8.5222    3.7156    0.0000 H       1  UNL1        0.0342
     71 H           7.7426    3.8813    0.0000 H       1  UNL1        0.0342
     72 H          18.4953   -1.1362    0.0000 H       1  UNL1        0.0265
     73 H          19.2235   -1.4604    0.0000 H       1  UNL1        0.0265
     74 H          20.6043   -0.4881    0.0000 H       1  UNL1        0.0265
     75 H          19.8762   -0.1639    0.0000 H       1  UNL1        0.0265
     76 H          20.0776   -1.8407    0.0000 H       1  UNL1        0.0265
     77 H          20.8058   -2.1649    0.0000 H       1  UNL1        0.0265
     78 H           6.8280    4.0757    0.0000 H       1  UNL1        0.0342
     79 H           6.0484    4.2414    0.0000 H       1  UNL1        0.0342
     80 H          22.1867   -1.1926    0.0000 H       1  UNL1        0.0265
     81 H          21.4585   -0.8684    0.0000 H       1  UNL1        0.0265
     82 H          21.6599   -2.5452    0.0000 H       1  UNL1        0.0265
     83 H          22.3881   -2.8694    0.0000 H       1  UNL1        0.0265
     84 H           4.8998    3.0033    0.0000 H       1  UNL1        0.0269
     85 H           5.6795    2.8376    0.0000 H       1  UNL1        0.0269
     86 H          23.7690   -1.8971    0.0000 H       1  UNL1        0.0265
     87 H          23.0408   -1.5729    0.0000 H       1  UNL1        0.0265
     88 H           5.1338    4.4358    0.0000 H       1  UNL1        0.0265
     89 H           4.3542    4.6015    0.0000 H       1  UNL1        0.0265
     90 H          23.2422   -3.2497    0.0000 H       1  UNL1        0.0265
     91 H          23.9704   -3.5738    0.0000 H       1  UNL1        0.0265
     92 H          25.3513   -2.6016    0.0000 H       1  UNL1        0.0268
     93 H          24.6231   -2.2774    0.0000 H       1  UNL1        0.0268
     94 H           3.2056    3.3634    0.0000 H       1  UNL1        0.0265
     95 H           3.9853    3.1977    0.0000 H       1  UNL1        0.0265
     96 H          24.8245   -3.9542    0.0000 H       1  UNL1        0.0315
     97 H          25.5527   -4.2783    0.0000 H       1  UNL1        0.0315
     98 H           3.4396    4.7959    0.0000 H       1  UNL1        0.0263
     99 H           2.6600    4.9617    0.0000 H       1  UNL1        0.0263
    100 H          26.9165   -4.9274    0.0000 H       1  UNL1        0.0613
    101 H          28.4790   -3.5766    0.0000 H       1  UNL1        0.0777
    102 H           1.8084    4.6949    0.0000 H       1  UNL1        0.0230
    103 H           1.4103    3.9136    0.0000 H       1  UNL1        0.0230
    104 H           2.1916    3.5156    0.0000 H       1  UNL1        0.0230
    105 H          28.5150   -4.9512    0.0000 H       1  UNL1        0.0268
    106 H          29.3620   -4.7242    0.0000 H       1  UNL1        0.0268
    107 H          29.1350   -3.8773    0.0000 H       1  UNL1        0.0268
@<TRIPOS>BOND
     1     1     7    1
     2     1    11    1
     3     2     8    1
     4     2    12    1
     5     3    15    1
     6     3    67    1
     7     4    25    2
     8     5    40    1
     9     5    42    1
    10     6    42    2
    11     7     8    1
    12     7     9    1
    13     7    44    1
    14     8    10    1
    15     8    45    1
    16     9    13    1
    17     9    46    1
    18     9    47    1
    19    10    14    1
    20    10    48    1
    21    10    49    1
    22    11    13    1
    23    11    15    1
    24    11    50    1
    25    12    14    1
    26    12    16    1
    27    12    51    1
    28    13    52    1
    29    13    53    1
    30    14    54    1
    31    14    55    1
    32    15    17    1
    33    15    56    1
    34    16    18    1
    35    16    57    1
    36    16    58    1
    37    17    20    1
    38    17    59    1
    39    17    60    1
    40    18    19    1
    41    18    61    1
    42    18    62    1
    43    19    21    1
    44    19    63    1
    45    19    64    1
    46    20    22    1
    47    20    65    1
    48    20    66    1
    49    21    23    1
    50    21    68    1
    51    21    69    1
    52    22    25    1
    53    22    70    1
    54    22    71    1
    55    23    24    1
    56    23    72    1
    57    23    73    1
    58    24    26    1
    59    24    74    1
    60    24    75    1
    61    25    27    1
    62    26    28    1
    63    26    76    1
    64    26    77    1
    65    27    30    1
    66    27    78    1
    67    27    79    1
    68    28    29    1
    69    28    80    1
    70    28    81    1
    71    29    31    1
    72    29    82    1
    73    29    83    1
    74    30    32    1
    75    30    84    1
    76    30    85    1
    77    31    33    1
    78    31    86    1
    79    31    87    1
    80    32    35    1
    81    32    88    1
    82    32    89    1
    83    33    34    1
    84    33    90    1
    85    33    91    1
    86    34    36    1
    87    34    92    1
    88    34    93    1
    89    35    37    1
    90    35    94    1
    91    35    95    1
    92    36    38    1
    93    36    96    1
    94    36    97    1
    95    37    41    1
    96    37    98    1
    97    37    99    1
    98    38    39    2
    99    38    42    1
   100    39    40    1
   101    39   100    1
   102    40    43    1
   103    40   101    1
   104    41   102    1
   105    41   103    1
   106    41   104    1
   107    43   105    1
   108    43   106    1
   109    43   107    1
