@<TRIPOS>MOLECULE
IMPHY006713
 36 35 0 0 0
SMALL
GASTEIGER

@<TRIPOS>ATOM
      1 O          10.6603   -0.2500    0.0000 O.3     1  UNL1       -0.4677
      2 O           2.8660    0.2500    0.0000 O.3     1  UNL1       -0.4677
      3 O           9.7942    1.2500    0.0000 O.2     1  UNL1       -0.2505
      4 O           3.7320   -1.2500    0.0000 O.2     1  UNL1       -0.2505
      5 C           8.9282   -0.2500    0.0000 C.3     1  UNL1        0.0570
      6 C           4.5981    0.2500    0.0000 C.3     1  UNL1        0.0570
      7 C           8.0622    0.2500    0.0000 C.3     1  UNL1       -0.0221
      8 C           5.4641   -0.2500    0.0000 C.3     1  UNL1       -0.0221
      9 C           6.3301    0.2500    0.0000 C.2     1  UNL1       -0.0871
     10 C           7.1962   -0.2500    0.0000 C.2     1  UNL1       -0.0871
     11 C           4.5981    1.2500    0.0000 C.3     1  UNL1       -0.0520
     12 C           8.9282   -1.2500    0.0000 C.3     1  UNL1       -0.0520
     13 C           3.7320   -0.2500    0.0000 C.2     1  UNL1        0.3100
     14 C           9.7942    0.2500    0.0000 C.2     1  UNL1        0.3100
     15 C           2.0000   -0.2500    0.0000 C.3     1  UNL1        0.0817
     16 C          11.5263    0.2500    0.0000 C.3     1  UNL1        0.0817
     17 H           9.4651   -0.5600    0.0000 H       1  UNL1        0.0414
     18 H           5.1350    0.5600    0.0000 H       1  UNL1        0.0414
     19 H           8.4607    0.7249    0.0000 H       1  UNL1        0.0315
     20 H           7.6636    0.7249    0.0000 H       1  UNL1        0.0315
     21 H           5.0656   -0.7249    0.0000 H       1  UNL1        0.0315
     22 H           5.8626   -0.7249    0.0000 H       1  UNL1        0.0315
     23 H           6.3301    0.8700    0.0000 H       1  UNL1        0.0569
     24 H           7.1962   -0.8700    0.0000 H       1  UNL1        0.0569
     25 H           5.2181    1.2500    0.0000 H       1  UNL1        0.0238
     26 H           4.5981    1.8700    0.0000 H       1  UNL1        0.0238
     27 H           3.9781    1.2500    0.0000 H       1  UNL1        0.0238
     28 H           8.3082   -1.2500    0.0000 H       1  UNL1        0.0238
     29 H           8.9282   -1.8700    0.0000 H       1  UNL1        0.0238
     30 H           9.5482   -1.2500    0.0000 H       1  UNL1        0.0238
     31 H           1.6900    0.2869    0.0000 H       1  UNL1        0.0661
     32 H           1.4631   -0.5600    0.0000 H       1  UNL1        0.0661
     33 H           2.3100   -0.7869    0.0000 H       1  UNL1        0.0661
     34 H          11.8363   -0.2869    0.0000 H       1  UNL1        0.0661
     35 H          12.0632    0.5600    0.0000 H       1  UNL1        0.0661
     36 H          11.2163    0.7869    0.0000 H       1  UNL1        0.0661
@<TRIPOS>BOND
     1     1    14    1
     2     1    16    1
     3     2    13    1
     4     2    15    1
     5     3    14    2
     6     4    13    2
     7     5     7    1
     8     5    12    1
     9     5    14    1
    10     5    17    1
    11     6     8    1
    12     6    11    1
    13     6    13    1
    14     6    18    1
    15     7    10    1
    16     7    19    1
    17     7    20    1
    18     8     9    1
    19     8    21    1
    20     8    22    1
    21     9    10    2
    22     9    23    1
    23    10    24    1
    24    11    25    1
    25    11    26    1
    26    11    27    1
    27    12    28    1
    28    12    29    1
    29    12    30    1
    30    15    31    1
    31    15    32    1
    32    15    33    1
    33    16    34    1
    34    16    35    1
    35    16    36    1
