@<TRIPOS>MOLECULE
IMPHY000206
 44 45 0 0 0
SMALL
GASTEIGER

@<TRIPOS>ATOM
      1 O           3.2320   -1.6719    0.0000 O.3     1  UNL1       -0.3881
      2 O           8.1263   -1.3334    0.0000 O.3     1  UNL1       -0.3888
      3 O           2.0000    1.1941    0.0000 O.2     1  UNL1       -0.2973
      4 C           4.5981    0.6941    0.0000 C.3     1  UNL1       -0.0200
      5 C           4.5981   -0.3059    0.0000 C.3     1  UNL1       -0.0059
      6 C           5.4920   -0.8405    0.0000 C.3     1  UNL1       -0.0417
      7 C           6.3981   -0.3267    0.0000 C.3     1  UNL1       -0.0123
      8 C           3.7320   -0.8059    0.0000 C.3     1  UNL1        0.0733
      9 C           5.4920    1.2288    0.0000 C.3     1  UNL1       -0.0466
     10 C           6.3981    0.7149    0.0000 C.3     1  UNL1       -0.0471
     11 C           3.7320    1.1941    0.0000 C.3     1  UNL1        0.0117
     12 C           2.8660   -0.3059    0.0000 C.3     1  UNL1        0.0347
     13 C           4.5981    1.6941    0.0000 C.3     1  UNL1       -0.0588
     14 C           7.2622   -0.8300    0.0000 C.3     1  UNL1        0.0633
     15 C           2.8660    0.6941    0.0000 C.2     1  UNL1        0.1366
     16 C           4.2320   -1.6719    0.0000 C.3     1  UNL1       -0.0354
     17 C           7.7655    0.0341    0.0000 C.3     1  UNL1       -0.0361
     18 C           6.7588   -1.6941    0.0000 C.3     1  UNL1       -0.0361
     19 H           4.5915   -1.1558    0.0000 H       1  UNL1        0.0334
     20 H           5.0874   -1.3103    0.0000 H       1  UNL1        0.0273
     21 H           5.8856   -1.3196    0.0000 H       1  UNL1        0.0273
     22 H           7.1350    0.0969    0.0000 H       1  UNL1        0.0328
     23 H           5.8856    1.7078    0.0000 H       1  UNL1        0.0271
     24 H           5.0874    1.6986    0.0000 H       1  UNL1        0.0271
     25 H           7.0089    0.6088    0.0000 H       1  UNL1        0.0269
     26 H           6.6071    1.2986    0.0000 H       1  UNL1        0.0269
     27 H           4.1306    1.6691    0.0000 H       1  UNL1        0.0347
     28 H           3.3335    1.6691    0.0000 H       1  UNL1        0.0347
     29 H           2.2554   -0.1982    0.0000 H       1  UNL1        0.0370
     30 H           2.6540   -0.8885    0.0000 H       1  UNL1        0.0370
     31 H           5.2181    1.6941    0.0000 H       1  UNL1        0.0235
     32 H           4.5981    2.3141    0.0000 H       1  UNL1        0.0235
     33 H           3.9781    1.6941    0.0000 H       1  UNL1        0.0235
     34 H           3.6951   -1.9819    0.0000 H       1  UNL1        0.0257
     35 H           4.5420   -2.2088    0.0000 H       1  UNL1        0.0257
     36 H           4.7690   -1.3619    0.0000 H       1  UNL1        0.0257
     37 H           2.6120   -1.6719    0.0000 H       1  UNL1        0.2102
     38 H           8.3012   -0.2780    0.0000 H       1  UNL1        0.0257
     39 H           6.2231   -1.3820    0.0000 H       1  UNL1        0.0257
     40 H           6.4468   -2.2299    0.0000 H       1  UNL1        0.0257
     41 H           8.0776    0.5698    0.0000 H       1  UNL1        0.0257
     42 H           7.2946   -2.0062    0.0000 H       1  UNL1        0.0257
     43 H           7.2298    0.3461    0.0000 H       1  UNL1        0.0257
     44 H           8.6644   -1.0254    0.0000 H       1  UNL1        0.2101
@<TRIPOS>BOND
     1     8     1    1
     2     1    37    1
     3     2    14    1
     4     2    44    1
     5     3    15    2
     6     4     5    1
     7     4     9    1
     8     4    11    1
     9     4    13    1
    10     5     6    1
    11     5     8    1
    12     5    19    1
    13     6     7    1
    14     6    20    1
    15     6    21    1
    16     7    10    1
    17     7    14    1
    18     7    22    1
    19     8    12    1
    20     8    16    1
    21     9    10    1
    22     9    23    1
    23     9    24    1
    24    10    25    1
    25    10    26    1
    26    11    15    1
    27    11    27    1
    28    11    28    1
    29    12    15    1
    30    12    29    1
    31    12    30    1
    32    13    31    1
    33    13    32    1
    34    13    33    1
    35    14    17    1
    36    14    18    1
    37    16    34    1
    38    16    35    1
    39    16    36    1
    40    17    38    1
    41    17    41    1
    42    17    43    1
    43    18    39    1
    44    18    40    1
    45    18    42    1
