@<TRIPOS>MOLECULE
IMPHY014603
 70 74 0 0 0
SMALL
GASTEIGER

@<TRIPOS>ATOM
      1 O           2.6200   -2.2913    0.0000 O.3     1  UNL1       -0.4802
      2 O           2.6400   -0.5594    0.0000 O.2     1  UNL1       -0.2504
      3 O          10.4351    3.2042    0.0000 O.3     1  UNL1       -0.5033
      4 O          12.2545    2.1724    0.0000 O.3     1  UNL1       -0.5033
      5 C           6.9146   -0.9720    0.0000 C.3     1  UNL1       -0.0196
      6 C           6.0046   -1.4788    0.0000 C.3     1  UNL1       -0.0284
      7 C           7.7806   -1.4720    0.0000 C.3     1  UNL1       -0.0046
      8 C           5.9966   -2.5204    0.0000 C.3     1  UNL1       -0.0286
      9 C           7.7967   -2.5135    0.0000 C.3     1  UNL1       -0.0429
     10 C           6.8986   -3.0413    0.0000 C.3     1  UNL1       -0.0465
     11 C           6.9146    0.0280    0.0000 C.3     1  UNL1       -0.0455
     12 C           5.0778   -0.9148    0.0000 C.3     1  UNL1       -0.0336
     13 C           8.6466   -0.9720    0.0000 C.2     1  UNL1       -0.0565
     14 C           5.0611   -3.0702    0.0000 C.3     1  UNL1       -0.0464
     15 C           8.6466    0.0280    0.0000 C.3     1  UNL1        0.0148
     16 C           4.1299   -1.4427    0.0000 C.3     1  UNL1        0.0651
     17 C           7.7806    0.5280    0.0000 C.3     1  UNL1       -0.0393
     18 C           6.0486   -0.4720    0.0000 C.3     1  UNL1       -0.0585
     19 C           4.1215   -2.5277    0.0000 C.3     1  UNL1       -0.0370
     20 C           8.6466   -1.9720    0.0000 C.3     1  UNL1       -0.0553
     21 C           5.9889   -3.5204    0.0000 C.3     1  UNL1       -0.0593
     22 C           9.5406    0.5627    0.0000 C.ar    1  UNL1       -0.0303
     23 C           9.5406   -1.5067    0.0000 C.2     1  UNL1       -0.0791
     24 C           8.6466    1.0280    0.0000 C.3     1  UNL1       -0.0518
     25 C           3.6399   -0.5710    0.0000 C.3     1  UNL1       -0.0494
     26 C           3.1299   -1.4311    0.0000 C.2     1  UNL1        0.3107
     27 C          10.4467   -0.9928    0.0000 C.3     1  UNL1       -0.0088
     28 C          10.4467    0.0488    0.0000 C.ar    1  UNL1       -0.0359
     29 C           9.5155    1.6474    0.0000 C.ar    1  UNL1       -0.0123
     30 C          11.3904    0.5841    0.0000 C.ar    1  UNL1       -0.0128
     31 C          10.4467    2.2043    0.0000 C.ar    1  UNL1        0.1585
     32 C          11.3904    1.6690    0.0000 C.ar    1  UNL1        0.1585
     33 H           6.7358   -1.9123    0.0000 H       1  UNL1        0.0312
     34 H           8.0147   -3.0939    0.0000 H       1  UNL1        0.0274
     35 H           8.4058   -2.3980    0.0000 H       1  UNL1        0.0274
     36 H           6.5013   -3.5172    0.0000 H       1  UNL1        0.0271
     37 H           7.2996   -3.5142    0.0000 H       1  UNL1        0.0271
     38 H           6.7025    0.6106    0.0000 H       1  UNL1        0.0271
     39 H           6.3040   -0.0797    0.0000 H       1  UNL1        0.0271
     40 H           5.4860   -0.4481    0.0000 H       1  UNL1        0.0279
     41 H           4.6878   -0.4327    0.0000 H       1  UNL1        0.0279
     42 H           4.6638   -3.5461    0.0000 H       1  UNL1        0.0271
     43 H           5.4621   -3.5431    0.0000 H       1  UNL1        0.0271
     44 H           8.1792    1.0030    0.0000 H       1  UNL1        0.0277
     45 H           7.3821    1.0030    0.0000 H       1  UNL1        0.0277
     46 H           6.3586    0.0649    0.0000 H       1  UNL1        0.0235
     47 H           5.5116   -0.1620    0.0000 H       1  UNL1        0.0235
     48 H           5.7386   -1.0089    0.0000 H       1  UNL1        0.0235
     49 H           3.5115   -2.4169    0.0000 H       1  UNL1        0.0276
     50 H           3.9080   -3.1097    0.0000 H       1  UNL1        0.0276
     51 H           8.3366   -2.5089    0.0000 H       1  UNL1        0.0238
     52 H           9.1836   -2.2820    0.0000 H       1  UNL1        0.0238
     53 H           8.9566   -1.4351    0.0000 H       1  UNL1        0.0238
     54 H           5.3689   -3.5156    0.0000 H       1  UNL1        0.0235
     55 H           5.9841   -4.1404    0.0000 H       1  UNL1        0.0235
     56 H           6.6088   -3.5252    0.0000 H       1  UNL1        0.0235
     57 H           9.5334   -2.1266    0.0000 H       1  UNL1        0.0575
     58 H           9.2666    1.0280    0.0000 H       1  UNL1        0.0241
     59 H           8.6466    1.6480    0.0000 H       1  UNL1        0.0241
     60 H           8.0266    1.0280    0.0000 H       1  UNL1        0.0241
     61 H           4.1804   -0.2672    0.0000 H       1  UNL1        0.0240
     62 H           3.3362   -0.0305    0.0000 H       1  UNL1        0.0240
     63 H           3.0994   -0.8747    0.0000 H       1  UNL1        0.0240
     64 H          10.6557   -1.5765    0.0000 H       1  UNL1        0.0356
     65 H          11.0575   -0.8867    0.0000 H       1  UNL1        0.0356
     66 H           8.9727    1.9470    0.0000 H       1  UNL1        0.0658
     67 H          11.9262    0.2720    0.0000 H       1  UNL1        0.0658
     68 H           2.0000   -2.2842    0.0000 H       1  UNL1        0.2951
     69 H          10.9684    3.5204    0.0000 H       1  UNL1        0.2923
     70 H          12.7927    1.8645    0.0000 H       1  UNL1        0.2923
@<TRIPOS>BOND
     1     1    26    1
     2     1    68    1
     3     2    26    2
     4     3    31    1
     5     3    69    1
     6     4    32    1
     7     4    70    1
     8     5     6    1
     9     5     7    1
    10     5    11    1
    11     5    18    1
    12     6     8    1
    13     6    12    1
    14     6    33    1
    15     7     9    1
    16     7    13    1
    17     7    20    1
    18     8    10    1
    19     8    14    1
    20     8    21    1
    21     9    10    1
    22     9    34    1
    23     9    35    1
    24    10    36    1
    25    10    37    1
    26    11    17    1
    27    11    38    1
    28    11    39    1
    29    12    16    1
    30    12    40    1
    31    12    41    1
    32    13    15    1
    33    13    23    2
    34    14    19    1
    35    14    42    1
    36    14    43    1
    37    15    17    1
    38    15    22    1
    39    15    24    1
    40    16    19    1
    41    16    25    1
    42    16    26    1
    43    17    44    1
    44    17    45    1
    45    18    46    1
    46    18    47    1
    47    18    48    1
    48    19    49    1
    49    19    50    1
    50    20    51    1
    51    20    52    1
    52    20    53    1
    53    21    54    1
    54    21    55    1
    55    21    56    1
    56    22    28   ar
    57    22    29   ar
    58    23    27    1
    59    23    57    1
    60    24    58    1
    61    24    59    1
    62    24    60    1
    63    25    61    1
    64    25    62    1
    65    25    63    1
    66    27    28    1
    67    27    64    1
    68    27    65    1
    69    28    30   ar
    70    29    31   ar
    71    29    66    1
    72    30    32   ar
    73    30    67    1
    74    31    32   ar
