@<TRIPOS>MOLECULE
IMPHY014860
 55 58 0 0 0
SMALL
GASTEIGER

@<TRIPOS>ATOM
      1 O           6.6300   -0.5512    0.0000 O.3     1  UNL1       -0.3280
      2 O           7.6006   -1.0566    0.0000 O.3     1  UNL1       -0.3842
      3 O           6.2959   -1.5241    0.0000 O.3     1  UNL1       -0.3634
      4 O           6.3926    2.3831    0.0000 O.3     1  UNL1       -0.3881
      5 O           5.6131    1.8282    0.0000 O.2     1  UNL1       -0.2930
      6 O           2.6734   -1.9014    0.0000 O.2     1  UNL1       -0.2920
      7 O           2.6052    2.3718    0.0000 O.3     1  UNL1       -0.3944
      8 C           6.7346    0.4434    0.0000 C.3     1  UNL1        0.1862
      9 C           7.6006   -0.0566    0.0000 C.3     1  UNL1        0.1168
     10 C           4.3490   -1.9549    0.0000 C.3     1  UNL1        0.0669
     11 C           5.6519   -0.7591    0.0000 C.3     1  UNL1        0.1857
     12 C           5.1519    0.1070    0.0000 C.3     1  UNL1        0.1044
     13 C           5.2874   -1.6696    0.0000 C.3     1  UNL1        0.0177
     14 C           6.7346    1.4434    0.0000 C.3     1  UNL1        0.0965
     15 C           5.8210    0.8501    0.0000 C.2     1  UNL1        0.1853
     16 C           8.4666    0.4434    0.0000 C.3     1  UNL1       -0.0195
     17 C           7.6006    1.9434    0.0000 C.3     1  UNL1       -0.0145
     18 C           8.4666    1.4434    0.0000 C.3     1  UNL1       -0.0453
     19 C           4.1811    0.2466    0.0000 C.2     1  UNL1       -0.0431
     20 C           3.5394   -1.4014    0.0000 C.2     1  UNL1        0.1649
     21 C           4.1974   -2.9434    0.0000 C.3     1  UNL1       -0.0496
     22 C           4.6519    0.9730    0.0000 C.3     1  UNL1       -0.0439
     23 C           3.4648   -0.4234    0.0000 C.2     1  UNL1       -0.0179
     24 C           3.8812    1.2006    0.0000 C.3     1  UNL1        0.0019
     25 C           7.6006    2.9434    0.0000 C.3     1  UNL1       -0.0600
     26 C           2.9051    1.4178    0.0000 C.3     1  UNL1        0.0505
     27 C           4.5574    1.9373    0.0000 C.3     1  UNL1       -0.0566
     28 H           5.3307   -2.2881    0.0000 H       1  UNL1        0.0328
     29 H           5.9000   -1.7656    0.0000 H       1  UNL1        0.0328
     30 H           6.1240    1.3357    0.0000 H       1  UNL1        0.0630
     31 H           8.6787   -0.1392    0.0000 H       1  UNL1        0.0294
     32 H           9.0772    0.5510    0.0000 H       1  UNL1        0.0294
     33 H           8.1375    2.2534    0.0000 H       1  UNL1        0.0324
     34 H           9.0772    1.3357    0.0000 H       1  UNL1        0.0270
     35 H           8.6787    2.0260    0.0000 H       1  UNL1        0.0270
     36 H           3.5845   -2.8493    0.0000 H       1  UNL1        0.0240
     37 H           4.1033   -3.5562    0.0000 H       1  UNL1        0.0240
     38 H           4.8102   -3.0374    0.0000 H       1  UNL1        0.0240
     39 H           5.1888    1.2830    0.0000 H       1  UNL1        0.0244
     40 H           4.3419    1.5099    0.0000 H       1  UNL1        0.0244
     41 H           4.1150    0.6630    0.0000 H       1  UNL1        0.0244
     42 H           2.8871   -0.1984    0.0000 H       1  UNL1        0.0652
     43 H           8.1375   -1.3666    0.0000 H       1  UNL1        0.2103
     44 H           6.0848   -2.1070    0.0000 H       1  UNL1        0.2128
     45 H           4.4864    1.0659    0.0000 H       1  UNL1        0.0366
     46 H           8.2206    2.9434    0.0000 H       1  UNL1        0.0233
     47 H           7.6006    3.5634    0.0000 H       1  UNL1        0.0233
     48 H           6.9806    2.9434    0.0000 H       1  UNL1        0.0233
     49 H           6.7911    2.8580    0.0000 H       1  UNL1        0.2099
     50 H           2.2903    1.3374    0.0000 H       1  UNL1        0.0563
     51 H           2.8775    0.7985    0.0000 H       1  UNL1        0.0563
     52 H           5.0142    1.5180    0.0000 H       1  UNL1        0.0236
     53 H           4.9767    2.3940    0.0000 H       1  UNL1        0.0236
     54 H           4.1007    2.3565    0.0000 H       1  UNL1        0.0236
     55 H           2.0000    2.5065    0.0000 H       1  UNL1        0.2094
@<TRIPOS>BOND
     1     8     1    1
     2     1    11    1
     3     9     2    1
     4     2    43    1
     5    11     3    1
     6     3    44    1
     7    14     4    1
     8     4    49    1
     9     5    15    2
    10     6    20    2
    11     7    26    1
    12     7    55    1
    13     8     9    1
    14     8    14    1
    15     8    15    1
    16     9    10    1
    17     9    16    1
    18    10    13    1
    19    10    20    1
    20    10    21    1
    21    11    12    1
    22    11    13    1
    23    12    15    1
    24    12    19    1
    25    12    22    1
    26    13    28    1
    27    13    29    1
    28    14    17    1
    29    14    30    1
    30    16    18    1
    31    16    31    1
    32    16    32    1
    33    17    18    1
    34    17    25    1
    35    17    33    1
    36    18    34    1
    37    18    35    1
    38    19    23    2
    39    19    24    1
    40    20    23    1
    41    21    36    1
    42    21    37    1
    43    21    38    1
    44    22    39    1
    45    22    40    1
    46    22    41    1
    47    23    42    1
    48    24    26    1
    49    24    27    1
    50    24    45    1
    51    25    46    1
    52    25    47    1
    53    25    48    1
    54    26    50    1
    55    26    51    1
    56    27    52    1
    57    27    53    1
    58    27    54    1
