@<TRIPOS>MOLECULE
IMPHY011482
 55 55 0 0 0
SMALL
GASTEIGER

@<TRIPOS>ATOM
      1 O           2.7595   -0.2588    0.0000 O.3     1  UNL1       -0.3880
      2 C           3.7254    0.0000    0.0000 C.3     1  UNL1        0.0721
      3 C           2.9063    0.5736    0.0000 C.3     1  UNL1       -0.0175
      4 C           4.2255    0.8660    0.0000 C.3     1  UNL1       -0.0198
      5 C           4.2255   -0.8660    0.0000 C.3     1  UNL1       -0.0053
      6 C           3.7254    1.7320    0.0000 C.3     1  UNL1       -0.0294
      7 C           2.9935    1.5698    0.0000 C.3     1  UNL1       -0.0600
      8 C           2.0000    0.1510    0.0000 C.3     1  UNL1       -0.0600
      9 C           3.7254   -1.7320    0.0000 C.2     1  UNL1       -0.0823
     10 C           4.2255    2.5981    0.0000 C.2     1  UNL1       -0.0764
     11 C           4.2255   -2.5981    0.0000 C.2     1  UNL1       -0.0762
     12 C           5.2255   -2.5981    0.0000 C.3     1  UNL1       -0.0286
     13 C           5.2255    2.5981    0.0000 C.2     1  UNL1       -0.0847
     14 C           5.7255    1.7320    0.0000 C.3     1  UNL1       -0.0308
     15 C           3.7254    3.4641    0.0000 C.3     1  UNL1       -0.0438
     16 C           5.7255   -1.7320    0.0000 C.3     1  UNL1       -0.0308
     17 C           5.2255    0.8660    0.0000 C.3     1  UNL1       -0.0286
     18 C           3.7254   -3.4641    0.0000 C.3     1  UNL1       -0.0438
     19 C           5.7255    0.0000    0.0000 C.2     1  UNL1       -0.0762
     20 C           5.2255   -0.8660    0.0000 C.2     1  UNL1       -0.0847
     21 C           6.7254    0.0000    0.0000 C.3     1  UNL1       -0.0438
     22 H           3.4682    0.8356    0.0000 H       1  UNL1        0.0323
     23 H           4.7004    0.4675    0.0000 H       1  UNL1        0.0296
     24 H           4.7004    1.2646    0.0000 H       1  UNL1        0.0296
     25 H           4.7004   -1.2646    0.0000 H       1  UNL1        0.0335
     26 H           4.7004   -0.4675    0.0000 H       1  UNL1        0.0335
     27 H           3.2505    2.1306    0.0000 H       1  UNL1        0.0311
     28 H           3.2505    1.3335    0.0000 H       1  UNL1        0.0311
     29 H           1.7380    0.7130    0.0000 H       1  UNL1        0.0233
     30 H           1.4381   -0.1110    0.0000 H       1  UNL1        0.0233
     31 H           2.2620   -0.4109    0.0000 H       1  UNL1        0.0233
     32 H           3.6111    1.5157    0.0000 H       1  UNL1        0.0233
     33 H           3.0475    2.1874    0.0000 H       1  UNL1        0.0233
     34 H           2.3758    1.6238    0.0000 H       1  UNL1        0.0233
     35 H           3.1054   -1.7320    0.0000 H       1  UNL1        0.0572
     36 H           2.5991   -0.8577    0.0000 H       1  UNL1        0.2102
     37 H           5.1178   -3.2087    0.0000 H       1  UNL1        0.0313
     38 H           5.8081   -2.8101    0.0000 H       1  UNL1        0.0313
     39 H           5.5354    3.1350    0.0000 H       1  UNL1        0.0572
     40 H           6.2004    1.3335    0.0000 H       1  UNL1        0.0310
     41 H           6.2004    2.1306    0.0000 H       1  UNL1        0.0310
     42 H           4.2624    3.7741    0.0000 H       1  UNL1        0.0274
     43 H           3.4154    4.0010    0.0000 H       1  UNL1        0.0274
     44 H           3.1885    3.1541    0.0000 H       1  UNL1        0.0274
     45 H           6.2004   -2.1306    0.0000 H       1  UNL1        0.0310
     46 H           6.2004   -1.3335    0.0000 H       1  UNL1        0.0310
     47 H           4.7505    1.2646    0.0000 H       1  UNL1        0.0313
     48 H           4.7505    0.4675    0.0000 H       1  UNL1        0.0313
     49 H           3.1885   -3.1541    0.0000 H       1  UNL1        0.0274
     50 H           3.4154   -4.0010    0.0000 H       1  UNL1        0.0274
     51 H           4.2624   -3.7741    0.0000 H       1  UNL1        0.0274
     52 H           4.7503   -1.2643    0.0000 H       1  UNL1        0.0572
     53 H           6.7254   -0.6200    0.0000 H       1  UNL1        0.0274
     54 H           7.3454    0.0000    0.0000 H       1  UNL1        0.0274
     55 H           6.7254    0.6200    0.0000 H       1  UNL1        0.0274
@<TRIPOS>BOND
     1     2     1    1
     2     1    36    1
     3     2     3    1
     4     2     4    1
     5     2     5    1
     6     3     7    1
     7     3     8    1
     8     3    22    1
     9     4     6    1
    10     4    23    1
    11     4    24    1
    12     5     9    1
    13     5    25    1
    14     5    26    1
    15     6    10    1
    16     6    27    1
    17     6    28    1
    18     7    32    1
    19     7    33    1
    20     7    34    1
    21     8    29    1
    22     8    30    1
    23     8    31    1
    24     9    11    2
    25     9    35    1
    26    10    13    2
    27    10    15    1
    28    11    12    1
    29    11    18    1
    30    12    16    1
    31    12    37    1
    32    12    38    1
    33    13    14    1
    34    13    39    1
    35    14    17    1
    36    14    40    1
    37    14    41    1
    38    15    42    1
    39    15    43    1
    40    15    44    1
    41    16    20    1
    42    16    45    1
    43    16    46    1
    44    17    19    1
    45    17    47    1
    46    17    48    1
    47    18    49    1
    48    18    50    1
    49    18    51    1
    50    19    20    2
    51    19    21    1
    52    20    52    1
    53    21    53    1
    54    21    54    1
    55    21    55    1
