@<TRIPOS>MOLECULE
IMPHY012142
 29 28 0 0 0
SMALL
GASTEIGER

@<TRIPOS>ATOM
      1 C           4.5981    0.2500    0.0000 C.3     1  UNL1       -0.0526
      2 C           3.7320    0.7500    0.0000 C.3     1  UNL1       -0.0507
      3 C           5.4641    0.7500    0.0000 C.3     1  UNL1       -0.0507
      4 C           2.8660    0.2500    0.0000 C.3     1  UNL1       -0.0467
      5 C           6.3301    0.2500    0.0000 C.3     1  UNL1       -0.0467
      6 C           2.0000    0.7500    0.0000 C.3     1  UNL1       -0.0627
      7 C           2.8660   -0.7500    0.0000 C.3     1  UNL1       -0.0627
      8 C           7.1962    0.7500    0.0000 C.3     1  UNL1       -0.0627
      9 C           6.3301   -0.7500    0.0000 C.3     1  UNL1       -0.0627
     10 H           4.1996   -0.2249    0.0000 H       1  UNL1        0.0265
     11 H           4.9966   -0.2249    0.0000 H       1  UNL1        0.0265
     12 H           4.1306    1.2250    0.0000 H       1  UNL1        0.0268
     13 H           3.3335    1.2250    0.0000 H       1  UNL1        0.0268
     14 H           5.8626    1.2250    0.0000 H       1  UNL1        0.0268
     15 H           5.0656    1.2250    0.0000 H       1  UNL1        0.0268
     16 H           2.8660    0.8700    0.0000 H       1  UNL1        0.0295
     17 H           6.8671   -0.0600    0.0000 H       1  UNL1        0.0295
     18 H           2.3100    1.2869    0.0000 H       1  UNL1        0.0232
     19 H           1.4631    1.0600    0.0000 H       1  UNL1        0.0232
     20 H           1.6900    0.2131    0.0000 H       1  UNL1        0.0232
     21 H           2.2460   -0.7500    0.0000 H       1  UNL1        0.0232
     22 H           2.8660   -1.3700    0.0000 H       1  UNL1        0.0232
     23 H           3.4860   -0.7500    0.0000 H       1  UNL1        0.0232
     24 H           7.5062    0.2131    0.0000 H       1  UNL1        0.0232
     25 H           7.7331    1.0600    0.0000 H       1  UNL1        0.0232
     26 H           6.8862    1.2869    0.0000 H       1  UNL1        0.0232
     27 H           5.7101   -0.7500    0.0000 H       1  UNL1        0.0232
     28 H           6.3301   -1.3700    0.0000 H       1  UNL1        0.0232
     29 H           6.9501   -0.7500    0.0000 H       1  UNL1        0.0232
@<TRIPOS>BOND
     1     1     2    1
     2     1     3    1
     3     1    10    1
     4     1    11    1
     5     2     4    1
     6     2    12    1
     7     2    13    1
     8     3     5    1
     9     3    14    1
    10     3    15    1
    11     4     6    1
    12     4     7    1
    13     4    16    1
    14     5     8    1
    15     5     9    1
    16     5    17    1
    17     6    18    1
    18     6    19    1
    19     6    20    1
    20     7    21    1
    21     7    22    1
    22     7    23    1
    23     8    24    1
    24     8    25    1
    25     8    26    1
    26     9    27    1
    27     9    28    1
    28     9    29    1
