@<TRIPOS>MOLECULE
IMPHY017798
 32 31 0 0 0
SMALL
GASTEIGER

@<TRIPOS>ATOM
      1 O           3.7320    0.2500    0.0000 O.3     1  UNL1       -0.4649
      2 O           9.7942   -0.2500    0.0000 O.3     1  UNL1       -0.4649
      3 O           4.5981   -1.2500    0.0000 O.2     1  UNL1       -0.2509
      4 O           8.9282    1.2500    0.0000 O.2     1  UNL1       -0.2509
      5 C           6.3301   -0.2500    0.0000 C.3     1  UNL1       -0.0425
      6 C           7.1962    0.2500    0.0000 C.3     1  UNL1       -0.0425
      7 C           5.4641    0.2500    0.0000 C.3     1  UNL1        0.0450
      8 C           8.0622   -0.2500    0.0000 C.3     1  UNL1        0.0450
      9 C           4.5981   -0.2500    0.0000 C.2     1  UNL1        0.3071
     10 C           8.9282    0.2500    0.0000 C.2     1  UNL1        0.3071
     11 C           2.8660   -0.2500    0.0000 C.3     1  UNL1        0.0896
     12 C          10.6603    0.2500    0.0000 C.3     1  UNL1        0.0896
     13 C           2.0000    0.2500    0.0000 C.3     1  UNL1       -0.0306
     14 C          11.5263   -0.2500    0.0000 C.3     1  UNL1       -0.0306
     15 H           5.9316   -0.7249    0.0000 H       1  UNL1        0.0271
     16 H           6.7287   -0.7249    0.0000 H       1  UNL1        0.0271
     17 H           7.5947    0.7249    0.0000 H       1  UNL1        0.0271
     18 H           6.7976    0.7249    0.0000 H       1  UNL1        0.0271
     19 H           5.8626    0.7249    0.0000 H       1  UNL1        0.0377
     20 H           5.0656    0.7249    0.0000 H       1  UNL1        0.0377
     21 H           7.6636   -0.7249    0.0000 H       1  UNL1        0.0377
     22 H           8.4607   -0.7249    0.0000 H       1  UNL1        0.0377
     23 H           2.4675   -0.7249    0.0000 H       1  UNL1        0.0694
     24 H           3.2646   -0.7249    0.0000 H       1  UNL1        0.0694
     25 H          11.0588    0.7249    0.0000 H       1  UNL1        0.0694
     26 H          10.2617    0.7249    0.0000 H       1  UNL1        0.0694
     27 H           2.3100    0.7869    0.0000 H       1  UNL1        0.0262
     28 H           1.4631    0.5600    0.0000 H       1  UNL1        0.0262
     29 H           1.6900   -0.2869    0.0000 H       1  UNL1        0.0262
     30 H          11.2163   -0.7869    0.0000 H       1  UNL1        0.0262
     31 H          12.0632   -0.5600    0.0000 H       1  UNL1        0.0262
     32 H          11.8363    0.2869    0.0000 H       1  UNL1        0.0262
@<TRIPOS>BOND
     1     1     9    1
     2     1    11    1
     3     2    10    1
     4     2    12    1
     5     3     9    2
     6     4    10    2
     7     5     6    1
     8     5     7    1
     9     5    15    1
    10     5    16    1
    11     6     8    1
    12     6    17    1
    13     6    18    1
    14     7     9    1
    15     7    19    1
    16     7    20    1
    17     8    10    1
    18     8    21    1
    19     8    22    1
    20    11    13    1
    21    11    23    1
    22    11    24    1
    23    12    14    1
    24    12    25    1
    25    12    26    1
    26    13    27    1
    27    13    28    1
    28    13    29    1
    29    14    30    1
    30    14    31    1
    31    14    32    1
