@<TRIPOS>MOLECULE
IMPHY001850
 134 142 0 0 0
SMALL
GASTEIGER

@<TRIPOS>ATOM
      1 O          11.7543    4.0403    0.0000 O.3     1  UNL1       -0.3448
      2 O           9.9818    4.9351    0.0000 O.3     1  UNL1       -0.3480
      3 O          10.3312   -4.2038    0.0000 O.3     1  UNL1       -0.3451
      4 O           8.5991   -4.2038    0.0000 O.3     1  UNL1       -0.3405
      5 O          10.3312   -6.2038    0.0000 O.3     1  UNL1       -0.3841
      6 O           8.5991   -7.2038    0.0000 O.3     1  UNL1       -0.3864
      7 O           6.8671   -6.2038    0.0000 O.3     1  UNL1       -0.3865
      8 O           6.0010   -4.7038    0.0000 O.3     1  UNL1       -0.3460
      9 O           4.2690   -4.7038    0.0000 O.3     1  UNL1       -0.3431
     10 O           6.0010   -2.7038    0.0000 O.3     1  UNL1       -0.3378
     11 O           4.2690   -1.7038    0.0000 O.3     1  UNL1       -0.3864
     12 O           2.5369   -2.7038    0.0000 O.3     1  UNL1       -0.3866
     13 O           5.1350   -1.2038    0.0000 O.3     1  UNL1       -0.3405
     14 O           7.7331   -1.7038    0.0000 O.3     1  UNL1       -0.3841
     15 O           7.7331    0.2963    0.0000 O.3     1  UNL1       -0.3864
     16 O           6.0010    1.2962    0.0000 O.3     1  UNL1       -0.3865
     17 O           4.2690    1.2962    0.0000 O.3     1  UNL1       -0.3924
     18 C          10.3604    1.9931    0.0000 C.3     1  UNL1       -0.0233
     19 C          11.2284    1.4965    0.0000 C.3     1  UNL1       -0.0295
     20 C          10.5659    2.9657    0.0000 C.3     1  UNL1       -0.0015
     21 C          11.2322    0.4965    0.0000 C.3     1  UNL1       -0.0306
     22 C          11.5542    3.0726    0.0000 C.3     1  UNL1        0.0660
     23 C          10.3681   -0.0069    0.0000 C.3     1  UNL1       -0.0285
     24 C          11.9628    2.1664    0.0000 C.3     1  UNL1       -0.0226
     25 C           9.4963    1.4898    0.0000 C.3     1  UNL1       -0.0467
     26 C          10.1636    3.8683    0.0000 C.3     1  UNL1        0.0160
     27 C           9.5002    0.4898    0.0000 C.3     1  UNL1       -0.0486
     28 C          10.3561   -1.0484    0.0000 C.3     1  UNL1       -0.0078
     29 C          10.8966    4.5311    0.0000 C.3     1  UNL1        0.1732
     30 C           9.4925    2.4898    0.0000 C.3     1  UNL1       -0.0590
     31 C          12.1442   -0.0069    0.0000 C.3     1  UNL1       -0.0311
     32 C          11.2562   -1.5727    0.0000 C.2     1  UNL1       -0.0648
     33 C           9.4062   -1.5727    0.0000 C.3     1  UNL1       -0.0413
     34 C           9.1852    4.0750    0.0000 C.3     1  UNL1       -0.0572
     35 C          11.7038    5.1213    0.0000 C.3     1  UNL1        0.0020
     36 C          12.1562   -1.0484    0.0000 C.2     1  UNL1       -0.0839
     37 C           9.4920   -0.5451    0.0000 C.3     1  UNL1       -0.0556
     38 C          11.2687   -2.6576    0.0000 C.3     1  UNL1       -0.0047
     39 C           9.3936   -2.6576    0.0000 C.3     1  UNL1       -0.0254
     40 C          10.3312   -3.2038    0.0000 C.3     1  UNL1        0.0655
     41 C          11.5963    6.1155    0.0000 C.3     1  UNL1       -0.0435
     42 C          10.6816    6.5195    0.0000 C.3     1  UNL1       -0.0201
     43 C           9.8743    5.9293    0.0000 C.3     1  UNL1        0.0535
     44 C          10.5741    7.5138    0.0000 C.3     1  UNL1       -0.0603
     45 C           9.4651   -4.7038    0.0000 C.3     1  UNL1        0.1882
     46 C           9.4651   -5.7038    0.0000 C.3     1  UNL1        0.1341
     47 C           8.5991   -6.2038    0.0000 C.3     1  UNL1        0.1141
     48 C           7.7331   -4.7038    0.0000 C.3     1  UNL1        0.1134
     49 C           7.7331   -5.7038    0.0000 C.3     1  UNL1        0.1119
     50 C           6.8671   -4.2038    0.0000 C.3     1  UNL1        0.0796
     51 C           5.1350   -4.2038    0.0000 C.3     1  UNL1        0.1883
     52 C           5.1350   -3.2038    0.0000 C.3     1  UNL1        0.1406
     53 C           4.2690   -2.7038    0.0000 C.3     1  UNL1        0.1143
     54 C           3.4030   -4.2038    0.0000 C.3     1  UNL1        0.0873
     55 C           3.4030   -3.2038    0.0000 C.3     1  UNL1        0.1095
     56 C           6.0010   -1.7038    0.0000 C.3     1  UNL1        0.1885
     57 C           2.5369   -4.7038    0.0000 C.3     1  UNL1       -0.0361
     58 C           6.8671   -1.2038    0.0000 C.3     1  UNL1        0.1341
     59 C           6.8671   -0.2037    0.0000 C.3     1  UNL1        0.1141
     60 C           5.1350   -0.2037    0.0000 C.3     1  UNL1        0.1130
     61 C           6.0010    0.2963    0.0000 C.3     1  UNL1        0.1119
     62 C           4.2690    0.2963    0.0000 C.3     1  UNL1        0.0730
     63 H          12.0067    1.1548    0.0000 H       1  UNL1        0.0310
     64 H           9.7206    2.8762    0.0000 H       1  UNL1        0.0335
     65 H          11.9634    0.9300    0.0000 H       1  UNL1        0.0310
     66 H          12.3991    3.1658    0.0000 H       1  UNL1        0.0600
     67 H          11.1026   -0.4347    0.0000 H       1  UNL1        0.0312
     68 H          12.3302    1.6670    0.0000 H       1  UNL1        0.0293
     69 H          12.4981    2.4792    0.0000 H       1  UNL1        0.0293
     70 H           9.2820    2.0716    0.0000 H       1  UNL1        0.0271
     71 H           8.8862    1.3798    0.0000 H       1  UNL1        0.0271
     72 H           9.9422    4.6890    0.0000 H       1  UNL1        0.0354
     73 H           8.8892    0.5951    0.0000 H       1  UNL1        0.0268
     74 H           9.2904   -0.0936    0.0000 H       1  UNL1        0.0268
     75 H           9.8004    3.0279    0.0000 H       1  UNL1        0.0235
     76 H           8.9544    2.7977    0.0000 H       1  UNL1        0.0235
     77 H           9.1846    1.9517    0.0000 H       1  UNL1        0.0235
     78 H          12.7562   -0.1059    0.0000 H       1  UNL1        0.0310
     79 H          12.3465    0.5792    0.0000 H       1  UNL1        0.0310
     80 H           9.2039   -0.9866    0.0000 H       1  UNL1        0.0274
     81 H           8.7941   -1.6717    0.0000 H       1  UNL1        0.0274
     82 H           9.3133    4.6816    0.0000 H       1  UNL1        0.0234
     83 H           8.5786    4.2032    0.0000 H       1  UNL1        0.0234
     84 H           9.0570    3.4684    0.0000 H       1  UNL1        0.0234
     85 H          11.9773    4.5649    0.0000 H       1  UNL1        0.0317
     86 H          12.2993    5.2940    0.0000 H       1  UNL1        0.0317
     87 H          12.6955   -1.3543    0.0000 H       1  UNL1        0.0572
     88 H           9.8041   -0.0093    0.0000 H       1  UNL1        0.0238
     89 H           8.9563   -0.2330    0.0000 H       1  UNL1        0.0238
     90 H           9.1799   -1.0808    0.0000 H       1  UNL1        0.0238
     91 H          11.4845   -3.2389    0.0000 H       1  UNL1        0.0335
     92 H          11.8783   -2.5445    0.0000 H       1  UNL1        0.0335
     93 H           8.7840   -2.5445    0.0000 H       1  UNL1        0.0290
     94 H           9.1778   -3.2389    0.0000 H       1  UNL1        0.0290
     95 H          11.0681   -3.6273    0.0000 H       1  UNL1        0.0600
     96 H          12.2149    6.0741    0.0000 H       1  UNL1        0.0270
     97 H          11.7445    6.7176    0.0000 H       1  UNL1        0.0270
     98 H           9.9040    6.8630    0.0000 H       1  UNL1        0.0320
     99 H           9.6008    6.4858    0.0000 H       1  UNL1        0.0563
    100 H           9.2788    5.7567    0.0000 H       1  UNL1        0.0563
    101 H          11.1905    7.5804    0.0000 H       1  UNL1        0.0233
    102 H          10.5074    8.1302    0.0000 H       1  UNL1        0.0233
    103 H           9.9576    7.4471    0.0000 H       1  UNL1        0.0233
    104 H          10.2013   -5.1288    0.0000 H       1  UNL1        0.0937
    105 H           9.4651   -6.5538    0.0000 H       1  UNL1        0.0671
    106 H           7.8630   -6.6288    0.0000 H       1  UNL1        0.0648
    107 H           7.7331   -3.8538    0.0000 H       1  UNL1        0.0647
    108 H           6.9970   -5.2787    0.0000 H       1  UNL1        0.0647
    109 H          10.3312   -6.8238    0.0000 H       1  UNL1        0.2101
    110 H           7.2656   -3.7288    0.0000 H       1  UNL1        0.0587
    111 H           6.4685   -3.7288    0.0000 H       1  UNL1        0.0587
    112 H           8.0622   -7.5138    0.0000 H       1  UNL1        0.2100
    113 H           6.8671   -6.8238    0.0000 H       1  UNL1        0.2100
    114 H           5.8711   -3.7788    0.0000 H       1  UNL1        0.0937
    115 H           5.1350   -2.3537    0.0000 H       1  UNL1        0.0675
    116 H           3.5329   -2.2788    0.0000 H       1  UNL1        0.0648
    117 H           3.4030   -5.0538    0.0000 H       1  UNL1        0.0621
    118 H           4.1391   -3.6288    0.0000 H       1  UNL1        0.0646
    119 H           6.7372   -2.1288    0.0000 H       1  UNL1        0.0938
    120 H           2.2269   -4.1668    0.0000 H       1  UNL1        0.0255
    121 H           2.0000   -5.0138    0.0000 H       1  UNL1        0.0255
    122 H           2.8469   -5.2407    0.0000 H       1  UNL1        0.0255
    123 H           3.7320   -1.3938    0.0000 H       1  UNL1        0.2100
    124 H           7.6032   -0.7787    0.0000 H       1  UNL1        0.0671
    125 H           2.0000   -3.0138    0.0000 H       1  UNL1        0.2100
    126 H           6.8671    0.6463    0.0000 H       1  UNL1        0.0648
    127 H           4.3989   -0.6287    0.0000 H       1  UNL1        0.0647
    128 H           5.2649    0.7213    0.0000 H       1  UNL1        0.0647
    129 H           3.6584    0.4039    0.0000 H       1  UNL1        0.0584
    130 H           4.0569   -0.2864    0.0000 H       1  UNL1        0.0584
    131 H           7.7331   -2.3238    0.0000 H       1  UNL1        0.2101
    132 H           7.7331    0.9163    0.0000 H       1  UNL1        0.2100
    133 H           5.4641    1.6062    0.0000 H       1  UNL1        0.2100
    134 H           3.7320    1.6062    0.0000 H       1  UNL1        0.2095
@<TRIPOS>BOND
     1     1    22    1
     2     1    29    1
     3     2    29    1
     4     2    43    1
     5     3    40    1
     6     3    45    1
     7     4    45    1
     8     4    48    1
     9     5    46    1
    10     5   109    1
    11     6    47    1
    12     6   112    1
    13     7    49    1
    14     7   113    1
    15     8    50    1
    16     8    51    1
    17     9    51    1
    18     9    54    1
    19    10    52    1
    20    10    56    1
    21    11    53    1
    22    11   123    1
    23    12    55    1
    24    12   125    1
    25    13    56    1
    26    13    60    1
    27    14    58    1
    28    14   131    1
    29    15    59    1
    30    15   132    1
    31    16    61    1
    32    16   133    1
    33    17    62    1
    34    17   134    1
    35    18    19    1
    36    18    20    1
    37    18    25    1
    38    18    30    1
    39    19    21    1
    40    19    24    1
    41    19    63    1
    42    20    22    1
    43    20    26    1
    44    20    64    1
    45    21    23    1
    46    21    31    1
    47    21    65    1
    48    22    24    1
    49    22    66    1
    50    23    27    1
    51    23    28    1
    52    23    67    1
    53    24    68    1
    54    24    69    1
    55    25    27    1
    56    25    70    1
    57    25    71    1
    58    26    29    1
    59    26    34    1
    60    26    72    1
    61    27    73    1
    62    27    74    1
    63    28    32    1
    64    28    33    1
    65    28    37    1
    66    29    35    1
    67    30    75    1
    68    30    76    1
    69    30    77    1
    70    31    36    1
    71    31    78    1
    72    31    79    1
    73    32    36    2
    74    32    38    1
    75    33    39    1
    76    33    80    1
    77    33    81    1
    78    34    82    1
    79    34    83    1
    80    34    84    1
    81    35    41    1
    82    35    85    1
    83    35    86    1
    84    36    87    1
    85    37    88    1
    86    37    89    1
    87    37    90    1
    88    38    40    1
    89    38    91    1
    90    38    92    1
    91    39    40    1
    92    39    93    1
    93    39    94    1
    94    40    95    1
    95    41    42    1
    96    41    96    1
    97    41    97    1
    98    42    43    1
    99    42    44    1
   100    42    98    1
   101    43    99    1
   102    43   100    1
   103    44   101    1
   104    44   102    1
   105    44   103    1
   106    45    46    1
   107    45   104    1
   108    46    47    1
   109    46   105    1
   110    47    49    1
   111    47   106    1
   112    48    49    1
   113    48    50    1
   114    48   107    1
   115    49   108    1
   116    50   110    1
   117    50   111    1
   118    51    52    1
   119    51   114    1
   120    52    53    1
   121    52   115    1
   122    53    55    1
   123    53   116    1
   124    54    55    1
   125    54    57    1
   126    54   117    1
   127    55   118    1
   128    56    58    1
   129    56   119    1
   130    57   120    1
   131    57   121    1
   132    57   122    1
   133    58    59    1
   134    58   124    1
   135    59    61    1
   136    59   126    1
   137    60    61    1
   138    60    62    1
   139    60   127    1
   140    61   128    1
   141    62   129    1
   142    62   130    1
