@<TRIPOS>MOLECULE
IMPHY010903
 67 66 0 0 0
SMALL
GASTEIGER

@<TRIPOS>ATOM
      1 O          17.5885    0.0950    0.0000 O.3     1  UNL1       -0.4619
      2 O          16.7224   -1.4050    0.0000 O.2     1  UNL1       -0.2509
      3 O          19.3205    1.0950    0.0000 O.3     1  UNL1       -0.3861
      4 O          21.0526    0.0950    0.0000 O.3     1  UNL1       -0.3923
      5 C           8.9282    0.0950    0.0000 C.3     1  UNL1       -0.0531
      6 C           9.7942   -0.4050    0.0000 C.3     1  UNL1       -0.0531
      7 C           8.0622   -0.4050    0.0000 C.3     1  UNL1       -0.0531
      8 C          10.6603    0.0950    0.0000 C.3     1  UNL1       -0.0531
      9 C           7.1962    0.0950    0.0000 C.3     1  UNL1       -0.0531
     10 C          11.5263   -0.4050    0.0000 C.3     1  UNL1       -0.0531
     11 C           6.3301   -0.4050    0.0000 C.3     1  UNL1       -0.0531
     12 C          12.3923    0.0950    0.0000 C.3     1  UNL1       -0.0531
     13 C           5.4641    0.0950    0.0000 C.3     1  UNL1       -0.0531
     14 C          13.2583   -0.4050    0.0000 C.3     1  UNL1       -0.0530
     15 C           4.5981   -0.4050    0.0000 C.3     1  UNL1       -0.0531
     16 C          14.1244    0.0950    0.0000 C.3     1  UNL1       -0.0526
     17 C           3.7320    0.0950    0.0000 C.3     1  UNL1       -0.0533
     18 C          14.9904   -0.4050    0.0000 C.3     1  UNL1       -0.0430
     19 C           2.8660   -0.4050    0.0000 C.3     1  UNL1       -0.0559
     20 C          15.8564    0.0950    0.0000 C.3     1  UNL1        0.0449
     21 C           2.0000    0.0950    0.0000 C.3     1  UNL1       -0.0653
     22 C          16.7224   -0.4050    0.0000 C.2     1  UNL1        0.3072
     23 C          18.4545   -0.4050    0.0000 C.3     1  UNL1        0.1204
     24 C          19.3205    0.0950    0.0000 C.3     1  UNL1        0.1121
     25 C          20.1865   -0.4050    0.0000 C.3     1  UNL1        0.0733
     26 H           9.3267    0.5699    0.0000 H       1  UNL1        0.0265
     27 H           8.5297    0.5699    0.0000 H       1  UNL1        0.0265
     28 H           9.3957   -0.8799    0.0000 H       1  UNL1        0.0265
     29 H          10.1928   -0.8799    0.0000 H       1  UNL1        0.0265
     30 H           7.6636   -0.8799    0.0000 H       1  UNL1        0.0265
     31 H           8.4607   -0.8799    0.0000 H       1  UNL1        0.0265
     32 H          11.0588    0.5699    0.0000 H       1  UNL1        0.0265
     33 H          10.2617    0.5699    0.0000 H       1  UNL1        0.0265
     34 H           7.5947    0.5699    0.0000 H       1  UNL1        0.0265
     35 H           6.7976    0.5699    0.0000 H       1  UNL1        0.0265
     36 H          11.1278   -0.8799    0.0000 H       1  UNL1        0.0265
     37 H          11.9248   -0.8799    0.0000 H       1  UNL1        0.0265
     38 H           5.9316   -0.8799    0.0000 H       1  UNL1        0.0265
     39 H           6.7287   -0.8799    0.0000 H       1  UNL1        0.0265
     40 H          12.7908    0.5699    0.0000 H       1  UNL1        0.0265
     41 H          11.9938    0.5699    0.0000 H       1  UNL1        0.0265
     42 H           5.8626    0.5699    0.0000 H       1  UNL1        0.0265
     43 H           5.0656    0.5699    0.0000 H       1  UNL1        0.0265
     44 H          12.8598   -0.8799    0.0000 H       1  UNL1        0.0265
     45 H          13.6569   -0.8799    0.0000 H       1  UNL1        0.0265
     46 H           4.1996   -0.8799    0.0000 H       1  UNL1        0.0265
     47 H           4.9966   -0.8799    0.0000 H       1  UNL1        0.0265
     48 H          14.5229    0.5699    0.0000 H       1  UNL1        0.0265
     49 H          13.7258    0.5699    0.0000 H       1  UNL1        0.0265
     50 H           4.1306    0.5699    0.0000 H       1  UNL1        0.0265
     51 H           3.3335    0.5699    0.0000 H       1  UNL1        0.0265
     52 H          14.5919   -0.8799    0.0000 H       1  UNL1        0.0270
     53 H          15.3889   -0.8799    0.0000 H       1  UNL1        0.0270
     54 H           2.4675   -0.8799    0.0000 H       1  UNL1        0.0263
     55 H           3.2646   -0.8799    0.0000 H       1  UNL1        0.0263
     56 H          16.2549    0.5699    0.0000 H       1  UNL1        0.0377
     57 H          15.4579    0.5699    0.0000 H       1  UNL1        0.0377
     58 H           2.3100    0.6319    0.0000 H       1  UNL1        0.0230
     59 H           1.4631    0.4050    0.0000 H       1  UNL1        0.0230
     60 H           1.6900   -0.4419    0.0000 H       1  UNL1        0.0230
     61 H          18.0560   -0.8799    0.0000 H       1  UNL1        0.0724
     62 H          18.8530   -0.8799    0.0000 H       1  UNL1        0.0724
     63 H          19.8574    0.4050    0.0000 H       1  UNL1        0.0650
     64 H          19.7880   -0.8799    0.0000 H       1  UNL1        0.0584
     65 H          20.5851   -0.8799    0.0000 H       1  UNL1        0.0584
     66 H          19.8574    1.4050    0.0000 H       1  UNL1        0.2100
     67 H          21.5895   -0.2150    0.0000 H       1  UNL1        0.2095
@<TRIPOS>BOND
     1     1    22    1
     2     1    23    1
     3     2    22    2
     4    24     3    1
     5     3    66    1
     6     4    25    1
     7     4    67    1
     8     5     6    1
     9     5     7    1
    10     5    26    1
    11     5    27    1
    12     6     8    1
    13     6    28    1
    14     6    29    1
    15     7     9    1
    16     7    30    1
    17     7    31    1
    18     8    10    1
    19     8    32    1
    20     8    33    1
    21     9    11    1
    22     9    34    1
    23     9    35    1
    24    10    12    1
    25    10    36    1
    26    10    37    1
    27    11    13    1
    28    11    38    1
    29    11    39    1
    30    12    14    1
    31    12    40    1
    32    12    41    1
    33    13    15    1
    34    13    42    1
    35    13    43    1
    36    14    16    1
    37    14    44    1
    38    14    45    1
    39    15    17    1
    40    15    46    1
    41    15    47    1
    42    16    18    1
    43    16    48    1
    44    16    49    1
    45    17    19    1
    46    17    50    1
    47    17    51    1
    48    18    20    1
    49    18    52    1
    50    18    53    1
    51    19    21    1
    52    19    54    1
    53    19    55    1
    54    20    22    1
    55    20    56    1
    56    20    57    1
    57    21    58    1
    58    21    59    1
    59    21    60    1
    60    23    24    1
    61    23    61    1
    62    23    62    1
    63    24    25    1
    64    24    63    1
    65    25    64    1
    66    25    65    1
