@<TRIPOS>MOLECULE
IMPHY017291
 24 25 0 0 0
SMALL
GASTEIGER

@<TRIPOS>ATOM
      1 O           5.5443   -1.3047    0.0000 O.2     1  UNL1       -0.4668
      2 O           3.7320    1.5000    0.0000 O.2     1  UNL1       -0.2919
      3 C           2.8660   -1.0000    0.0000 C.3     1  UNL1       -0.0300
      4 C           3.7320   -1.5000    0.0000 C.3     1  UNL1        0.0092
      5 C           2.8660    0.0000    0.0000 C.3     1  UNL1        0.0136
      6 C           4.5981   -1.0000    0.0000 C.ar    1  UNL1        0.1158
      7 C           4.5981    0.0000    0.0000 C.ar    1  UNL1        0.0611
      8 C           3.7320    0.5000    0.0000 C.2     1  UNL1        0.1670
      9 C           2.0000   -1.5000    0.0000 C.3     1  UNL1       -0.0616
     10 C           5.5443    0.3047    0.0000 C.ar    1  UNL1       -0.0020
     11 C           6.1279   -0.5000    0.0000 C.ar    1  UNL1        0.0957
     12 C           5.8550    1.2552    0.0000 C.3     1  UNL1       -0.0360
     13 H           2.8660   -1.6200    0.0000 H       1  UNL1        0.0306
     14 H           3.3335   -1.9750    0.0000 H       1  UNL1        0.0346
     15 H           4.1306   -1.9750    0.0000 H       1  UNL1        0.0346
     16 H           2.6540    0.5826    0.0000 H       1  UNL1        0.0348
     17 H           2.2554   -0.1077    0.0000 H       1  UNL1        0.0348
     18 H           1.6900   -0.9631    0.0000 H       1  UNL1        0.0233
     19 H           1.4631   -1.8100    0.0000 H       1  UNL1        0.0233
     20 H           2.3100   -2.0369    0.0000 H       1  UNL1        0.0233
     21 H           6.7479   -0.5000    0.0000 H       1  UNL1        0.1032
     22 H           6.4443    1.0626    0.0000 H       1  UNL1        0.0279
     23 H           6.0476    1.8446    0.0000 H       1  UNL1        0.0279
     24 H           5.2656    1.4479    0.0000 H       1  UNL1        0.0279
@<TRIPOS>BOND
     1     1     6   ar
     2     1    11   ar
     3     2     8    2
     4     3     4    1
     5     3     5    1
     6     3     9    1
     7     3    13    1
     8     4     6    1
     9     4    14    1
    10     4    15    1
    11     5     8    1
    12     5    16    1
    13     5    17    1
    14     6     7   ar
    15     7     8    1
    16     7    10   ar
    17     9    18    1
    18     9    19    1
    19     9    20    1
    20    10    11   ar
    21    10    12    1
    22    11    21    1
    23    12    22    1
    24    12    23    1
    25    12    24    1
