@<TRIPOS>MOLECULE
IMPHY001418
 136 144 0 0 0
SMALL
GASTEIGER

@<TRIPOS>ATOM
      1 O          10.8882    4.0403    0.0000 O.3     1  UNL1       -0.3448
      2 O           9.1158    4.9351    0.0000 O.3     1  UNL1       -0.3480
      3 O           9.4651   -4.2038    0.0000 O.3     1  UNL1       -0.3454
      4 O           7.7331   -4.2038    0.0000 O.3     1  UNL1       -0.3405
      5 O           9.4651   -6.2038    0.0000 O.3     1  UNL1       -0.3378
      6 O           7.7331   -7.2038    0.0000 O.3     1  UNL1       -0.3864
      7 O           6.0010   -6.2038    0.0000 O.3     1  UNL1       -0.3401
      8 O          10.3312   -4.7038    0.0000 O.3     1  UNL1       -0.3405
      9 O           6.0010   -3.2038    0.0000 O.3     1  UNL1       -0.3924
     10 O           5.1350   -4.7038    0.0000 O.3     1  UNL1       -0.3431
     11 O          11.1972   -7.2038    0.0000 O.3     1  UNL1       -0.3841
     12 O          12.9292   -6.2038    0.0000 O.3     1  UNL1       -0.3864
     13 O           4.2690   -7.2038    0.0000 O.3     1  UNL1       -0.3841
     14 O          12.9292   -4.2038    0.0000 O.3     1  UNL1       -0.3865
     15 O           2.5369   -6.2038    0.0000 O.3     1  UNL1       -0.3864
     16 O           2.5369   -4.2038    0.0000 O.3     1  UNL1       -0.3866
     17 O          12.0632   -2.7038    0.0000 O.3     1  UNL1       -0.3924
     18 C           9.4944    1.9931    0.0000 C.3     1  UNL1       -0.0233
     19 C          10.3623    1.4965    0.0000 C.3     1  UNL1       -0.0298
     20 C          10.3662    0.4965    0.0000 C.3     1  UNL1       -0.0343
     21 C           9.6999    2.9657    0.0000 C.3     1  UNL1       -0.0015
     22 C           9.5021   -0.0069    0.0000 C.3     1  UNL1       -0.0323
     23 C          10.6882    3.0726    0.0000 C.3     1  UNL1        0.0660
     24 C           9.4901   -1.0484    0.0000 C.3     1  UNL1       -0.0260
     25 C          11.0968    2.1664    0.0000 C.3     1  UNL1       -0.0226
     26 C           8.6303    1.4898    0.0000 C.3     1  UNL1       -0.0467
     27 C           8.6342    0.4898    0.0000 C.3     1  UNL1       -0.0489
     28 C           9.2976    3.8683    0.0000 C.3     1  UNL1        0.0160
     29 C          10.3901   -1.5727    0.0000 C.3     1  UNL1       -0.0330
     30 C          11.2781   -0.0069    0.0000 C.3     1  UNL1       -0.0494
     31 C          10.0305    4.5311    0.0000 C.3     1  UNL1        0.1732
     32 C          11.2902   -1.0484    0.0000 C.3     1  UNL1       -0.0494
     33 C           8.6264    2.4898    0.0000 C.3     1  UNL1       -0.0590
     34 C           8.5402   -1.5727    0.0000 C.3     1  UNL1       -0.0448
     35 C          10.4027   -2.6576    0.0000 C.3     1  UNL1       -0.0232
     36 C           8.6260   -0.5451    0.0000 C.3     1  UNL1       -0.0590
     37 C           8.5276   -2.6576    0.0000 C.3     1  UNL1       -0.0260
     38 C           8.3192    4.0750    0.0000 C.3     1  UNL1       -0.0572
     39 C           9.4651   -3.2038    0.0000 C.3     1  UNL1        0.0621
     40 C          10.8378    5.1213    0.0000 C.3     1  UNL1        0.0020
     41 C          10.7303    6.1155    0.0000 C.3     1  UNL1       -0.0435
     42 C           9.0083    5.9293    0.0000 C.3     1  UNL1        0.0535
     43 C           9.8155    6.5195    0.0000 C.3     1  UNL1       -0.0201
     44 C           9.7080    7.5138    0.0000 C.3     1  UNL1       -0.0603
     45 C           8.5991   -4.7038    0.0000 C.3     1  UNL1        0.1886
     46 C           8.5991   -5.7038    0.0000 C.3     1  UNL1        0.1406
     47 C           7.7331   -6.2038    0.0000 C.3     1  UNL1        0.1148
     48 C           6.8671   -4.7038    0.0000 C.3     1  UNL1        0.1134
     49 C           6.8671   -5.7038    0.0000 C.3     1  UNL1        0.1184
     50 C           6.0010   -4.2038    0.0000 C.3     1  UNL1        0.0730
     51 C          10.3312   -5.7038    0.0000 C.3     1  UNL1        0.1885
     52 C          11.1972   -6.2038    0.0000 C.3     1  UNL1        0.1341
     53 C           5.1350   -5.7038    0.0000 C.3     1  UNL1        0.1883
     54 C          12.0632   -5.7038    0.0000 C.3     1  UNL1        0.1141
     55 C          11.1972   -4.2038    0.0000 C.3     1  UNL1        0.1130
     56 C           4.2690   -6.2038    0.0000 C.3     1  UNL1        0.1341
     57 C          12.0632   -4.7038    0.0000 C.3     1  UNL1        0.1119
     58 C           3.4030   -5.7038    0.0000 C.3     1  UNL1        0.1140
     59 C           4.2690   -4.2038    0.0000 C.3     1  UNL1        0.0873
     60 C           3.4030   -4.7038    0.0000 C.3     1  UNL1        0.1095
     61 C          11.1972   -3.2038    0.0000 C.3     1  UNL1        0.0730
     62 C           4.2690   -3.2038    0.0000 C.3     1  UNL1       -0.0361
     63 H          11.1406    1.1548    0.0000 H       1  UNL1        0.0310
     64 H          11.0974    0.9300    0.0000 H       1  UNL1        0.0306
     65 H           8.8546    2.8762    0.0000 H       1  UNL1        0.0335
     66 H          10.2366   -0.4347    0.0000 H       1  UNL1        0.0309
     67 H          11.5330    3.1658    0.0000 H       1  UNL1        0.0600
     68 H          11.4642    1.6670    0.0000 H       1  UNL1        0.0293
     69 H          11.6321    2.4792    0.0000 H       1  UNL1        0.0293
     70 H           8.4160    2.0716    0.0000 H       1  UNL1        0.0271
     71 H           8.0201    1.3798    0.0000 H       1  UNL1        0.0271
     72 H           8.0232    0.5951    0.0000 H       1  UNL1        0.0268
     73 H           8.4244   -0.0936    0.0000 H       1  UNL1        0.0268
     74 H           8.9078    3.3862    0.0000 H       1  UNL1        0.0354
     75 H          11.1295   -1.9920    0.0000 H       1  UNL1        0.0307
     76 H          11.8902   -0.1059    0.0000 H       1  UNL1        0.0268
     77 H          11.4804    0.5792    0.0000 H       1  UNL1        0.0268
     78 H          11.5060   -1.6297    0.0000 H       1  UNL1        0.0268
     79 H          11.8998   -0.9353    0.0000 H       1  UNL1        0.0268
     80 H           8.9344    3.0279    0.0000 H       1  UNL1        0.0235
     81 H           8.0883    2.7977    0.0000 H       1  UNL1        0.0235
     82 H           8.3185    1.9517    0.0000 H       1  UNL1        0.0235
     83 H           8.3379   -0.9866    0.0000 H       1  UNL1        0.0271
     84 H           7.9281   -1.6717    0.0000 H       1  UNL1        0.0271
     85 H          10.6185   -3.2389    0.0000 H       1  UNL1        0.0293
     86 H          11.0123   -2.5445    0.0000 H       1  UNL1        0.0293
     87 H           8.9380   -0.0093    0.0000 H       1  UNL1        0.0235
     88 H           8.0902   -0.2330    0.0000 H       1  UNL1        0.0235
     89 H           8.3139   -1.0808    0.0000 H       1  UNL1        0.0235
     90 H           7.9180   -2.5445    0.0000 H       1  UNL1        0.0290
     91 H           8.3118   -3.2389    0.0000 H       1  UNL1        0.0290
     92 H           8.4473    4.6816    0.0000 H       1  UNL1        0.0234
     93 H           7.7125    4.2032    0.0000 H       1  UNL1        0.0234
     94 H           8.1910    3.4684    0.0000 H       1  UNL1        0.0234
     95 H          10.0027   -3.5127    0.0000 H       1  UNL1        0.0597
     96 H          11.1112    4.5649    0.0000 H       1  UNL1        0.0317
     97 H          11.4333    5.2940    0.0000 H       1  UNL1        0.0317
     98 H          11.3489    6.0741    0.0000 H       1  UNL1        0.0270
     99 H          10.8785    6.7176    0.0000 H       1  UNL1        0.0270
    100 H           8.7348    6.4858    0.0000 H       1  UNL1        0.0563
    101 H           8.4128    5.7567    0.0000 H       1  UNL1        0.0563
    102 H          10.3160    6.8855    0.0000 H       1  UNL1        0.0320
    103 H          10.3244    7.5804    0.0000 H       1  UNL1        0.0233
    104 H           9.6414    8.1302    0.0000 H       1  UNL1        0.0233
    105 H           9.0916    7.4471    0.0000 H       1  UNL1        0.0233
    106 H           8.5991   -4.0838    0.0000 H       1  UNL1        0.0938
    107 H           8.5991   -6.3238    0.0000 H       1  UNL1        0.0675
    108 H           7.1962   -6.5138    0.0000 H       1  UNL1        0.0648
    109 H           6.8671   -4.0838    0.0000 H       1  UNL1        0.0647
    110 H           6.3301   -5.3938    0.0000 H       1  UNL1        0.0651
    111 H           5.3905   -4.0961    0.0000 H       1  UNL1        0.0584
    112 H           5.7890   -4.7864    0.0000 H       1  UNL1        0.0584
    113 H           9.7942   -5.3938    0.0000 H       1  UNL1        0.0938
    114 H           7.1962   -7.5138    0.0000 H       1  UNL1        0.2100
    115 H          11.7341   -6.5138    0.0000 H       1  UNL1        0.0671
    116 H           5.1350   -6.3238    0.0000 H       1  UNL1        0.0938
    117 H           5.4641   -2.8938    0.0000 H       1  UNL1        0.2095
    118 H          12.6002   -5.3938    0.0000 H       1  UNL1        0.0648
    119 H          10.6603   -3.8938    0.0000 H       1  UNL1        0.0647
    120 H           3.7320   -6.5138    0.0000 H       1  UNL1        0.0671
    121 H          12.0632   -4.0838    0.0000 H       1  UNL1        0.0647
    122 H          11.7341   -7.5138    0.0000 H       1  UNL1        0.2101
    123 H           2.8660   -5.3938    0.0000 H       1  UNL1        0.0648
    124 H           4.8059   -3.8938    0.0000 H       1  UNL1        0.0621
    125 H           3.4030   -4.0838    0.0000 H       1  UNL1        0.0646
    126 H          10.9851   -2.6211    0.0000 H       1  UNL1        0.0584
    127 H          10.5866   -3.3114    0.0000 H       1  UNL1        0.0584
    128 H          12.9292   -6.8238    0.0000 H       1  UNL1        0.2100
    129 H           3.7320   -7.5138    0.0000 H       1  UNL1        0.2101
    130 H          13.4662   -4.5138    0.0000 H       1  UNL1        0.2100
    131 H           4.8890   -3.2038    0.0000 H       1  UNL1        0.0255
    132 H           4.2690   -2.5838    0.0000 H       1  UNL1        0.0255
    133 H           3.6490   -3.2038    0.0000 H       1  UNL1        0.0255
    134 H           2.0000   -5.8938    0.0000 H       1  UNL1        0.2100
    135 H           2.5369   -3.5838    0.0000 H       1  UNL1        0.2100
    136 H          12.6002   -3.0138    0.0000 H       1  UNL1        0.2095
@<TRIPOS>BOND
     1     1    23    1
     2    31     1    1
     3     2    31    1
     4     2    42    1
     5    39     3    1
     6    45     3    1
     7     4    45    1
     8     4    48    1
     9    46     5    1
    10    51     5    1
    11    47     6    1
    12     6   114    1
    13    49     7    1
    14    53     7    1
    15     8    51    1
    16     8    55    1
    17     9    50    1
    18     9   117    1
    19    10    53    1
    20    10    59    1
    21    52    11    1
    22    11   122    1
    23    54    12    1
    24    12   128    1
    25    56    13    1
    26    13   129    1
    27    57    14    1
    28    14   130    1
    29    58    15    1
    30    15   134    1
    31    60    16    1
    32    16   135    1
    33    17    61    1
    34    17   136    1
    35    18    19    1
    36    18    21    1
    37    18    26    1
    38    18    33    1
    39    19    20    1
    40    19    25    1
    41    19    63    1
    42    20    22    1
    43    20    30    1
    44    20    64    1
    45    21    23    1
    46    21    28    1
    47    21    65    1
    48    22    24    1
    49    22    27    1
    50    22    66    1
    51    23    25    1
    52    23    67    1
    53    24    29    1
    54    24    34    1
    55    24    36    1
    56    25    68    1
    57    25    69    1
    58    26    27    1
    59    26    70    1
    60    26    71    1
    61    27    72    1
    62    27    73    1
    63    28    31    1
    64    28    38    1
    65    28    74    1
    66    29    32    1
    67    29    35    1
    68    29    75    1
    69    30    32    1
    70    30    76    1
    71    30    77    1
    72    31    40    1
    73    32    78    1
    74    32    79    1
    75    33    80    1
    76    33    81    1
    77    33    82    1
    78    34    37    1
    79    34    83    1
    80    34    84    1
    81    35    39    1
    82    35    85    1
    83    35    86    1
    84    36    87    1
    85    36    88    1
    86    36    89    1
    87    37    39    1
    88    37    90    1
    89    37    91    1
    90    38    92    1
    91    38    93    1
    92    38    94    1
    93    39    95    1
    94    40    41    1
    95    40    96    1
    96    40    97    1
    97    41    43    1
    98    41    98    1
    99    41    99    1
   100    42    43    1
   101    42   100    1
   102    42   101    1
   103    43    44    1
   104    43   102    1
   105    44   103    1
   106    44   104    1
   107    44   105    1
   108    45    46    1
   109    45   106    1
   110    46    47    1
   111    46   107    1
   112    47    49    1
   113    47   108    1
   114    48    49    1
   115    48    50    1
   116    48   109    1
   117    49   110    1
   118    50   111    1
   119    50   112    1
   120    51    52    1
   121    51   113    1
   122    52    54    1
   123    52   115    1
   124    53    56    1
   125    53   116    1
   126    54    57    1
   127    54   118    1
   128    55    57    1
   129    55    61    1
   130    55   119    1
   131    56    58    1
   132    56   120    1
   133    57   121    1
   134    58    60    1
   135    58   123    1
   136    59    60    1
   137    59    62    1
   138    59   124    1
   139    60   125    1
   140    61   126    1
   141    61   127    1
   142    62   131    1
   143    62   132    1
   144    62   133    1
