@<TRIPOS>MOLECULE
IMPHY003187
 34 36 0 0 0
SMALL
GASTEIGER

@<TRIPOS>ATOM
      1 O           8.1465    1.8592    0.0000 O.3     1  UNL1       -0.5060
      2 O           6.3981   -2.1754    0.0000 O.2     1  UNL1       -0.2866
      3 O           6.3981    1.8246    0.0000 O.2     1  UNL1       -0.2864
      4 O           4.6497    1.8592    0.0000 O.3     1  UNL1       -0.5059
      5 O           2.8680   -1.1995    0.0000 O.3     1  UNL1       -0.4950
      6 O          10.7961   -0.7029    0.0000 O.3     1  UNL1       -0.3904
      7 C           7.2641   -0.6754    0.0000 C.ar    1  UNL1        0.0369
      8 C           7.2641    0.3246    0.0000 C.ar    1  UNL1        0.0745
      9 C           5.5320    0.3246    0.0000 C.ar    1  UNL1        0.0748
     10 C           5.5320   -0.6754    0.0000 C.ar    1  UNL1        0.0400
     11 C           6.3981   -1.1754    0.0000 C.2     1  UNL1        0.1949
     12 C           6.3981    0.8246    0.0000 C.2     1  UNL1        0.2015
     13 C           8.1580   -1.2100    0.0000 C.ar    1  UNL1       -0.0446
     14 C           8.1580    0.8593    0.0000 C.ar    1  UNL1        0.1287
     15 C           9.0641   -0.6962    0.0000 C.ar    1  UNL1       -0.0180
     16 C           4.6381    0.8593    0.0000 C.ar    1  UNL1        0.1318
     17 C           4.6381   -1.2100    0.0000 C.ar    1  UNL1       -0.0082
     18 C           9.0641    0.3454    0.0000 C.ar    1  UNL1       -0.0141
     19 C           3.7320   -0.6962    0.0000 C.ar    1  UNL1        0.1243
     20 C           3.7320    0.3454    0.0000 C.ar    1  UNL1        0.0223
     21 C           9.9282   -1.1995    0.0000 C.3     1  UNL1        0.0694
     22 C           2.0000   -0.7029    0.0000 C.3     1  UNL1        0.0788
     23 H           8.1509   -1.8300    0.0000 H       1  UNL1        0.0628
     24 H           4.6453   -1.8300    0.0000 H       1  UNL1        0.0661
     25 H           9.5998    0.6575    0.0000 H       1  UNL1        0.0658
     26 H           3.1963    0.6575    0.0000 H       1  UNL1        0.0691
     27 H           9.5278   -1.6730    0.0000 H       1  UNL1        0.0607
     28 H          10.3249   -1.6760    0.0000 H       1  UNL1        0.0607
     29 H           8.6798    2.1754    0.0000 H       1  UNL1        0.2922
     30 H           4.1164    2.1754    0.0000 H       1  UNL1        0.2922
     31 H          11.3319   -1.0150    0.0000 H       1  UNL1        0.2098
     32 H           2.3079   -0.1648    0.0000 H       1  UNL1        0.0660
     33 H           1.4619   -0.3950    0.0000 H       1  UNL1        0.0660
     34 H           1.6921   -1.2410    0.0000 H       1  UNL1        0.0660
@<TRIPOS>BOND
     1     1    14    1
     2     1    29    1
     3     2    11    2
     4     3    12    2
     5     4    16    1
     6     4    30    1
     7     5    19    1
     8     5    22    1
     9     6    21    1
    10     6    31    1
    11     7     8   ar
    12     7    11    1
    13     7    13   ar
    14     8    12    1
    15     8    14   ar
    16     9    10   ar
    17     9    12    1
    18     9    16   ar
    19    10    11    1
    20    10    17   ar
    21    13    15   ar
    22    13    23    1
    23    14    18   ar
    24    15    18   ar
    25    15    21    1
    26    16    20   ar
    27    17    19   ar
    28    17    24    1
    29    18    25    1
    30    19    20   ar
    31    20    26    1
    32    21    27    1
    33    21    28    1
    34    22    32    1
    35    22    33    1
    36    22    34    1
