@<TRIPOS>MOLECULE
IMPHY017134
 30 30 0 0 0
SMALL
GASTEIGER

@<TRIPOS>ATOM
      1 C           2.8660   -0.5000    0.0000 C.3     1  UNL1       -0.0410
      2 C           2.0000   -1.0000    0.0000 C.3     1  UNL1       -0.0502
      3 C           3.7320   -1.0000    0.0000 C.3     1  UNL1       -0.0502
      4 C           2.0000   -2.0000    0.0000 C.3     1  UNL1       -0.0528
      5 C           3.7320   -2.0000    0.0000 C.3     1  UNL1       -0.0528
      6 C           2.8660    0.5000    0.0000 C.3     1  UNL1       -0.0502
      7 C           2.8660   -2.5000    0.0000 C.3     1  UNL1       -0.0530
      8 C           3.7320    1.0000    0.0000 C.3     1  UNL1       -0.0531
      9 C           3.7320    2.0000    0.0000 C.3     1  UNL1       -0.0559
     10 C           4.5981    2.5000    0.0000 C.3     1  UNL1       -0.0653
     11 H           3.4030   -0.1900    0.0000 H       1  UNL1        0.0301
     12 H           1.7880   -0.4174    0.0000 H       1  UNL1        0.0268
     13 H           1.3894   -1.1077    0.0000 H       1  UNL1        0.0268
     14 H           4.3426   -1.1077    0.0000 H       1  UNL1        0.0268
     15 H           3.9441   -0.4174    0.0000 H       1  UNL1        0.0268
     16 H           1.3894   -1.8923    0.0000 H       1  UNL1        0.0265
     17 H           1.7880   -2.5826    0.0000 H       1  UNL1        0.0265
     18 H           3.9441   -2.5826    0.0000 H       1  UNL1        0.0265
     19 H           4.3426   -1.8923    0.0000 H       1  UNL1        0.0265
     20 H           2.6540    1.0826    0.0000 H       1  UNL1        0.0268
     21 H           2.2554    0.3923    0.0000 H       1  UNL1        0.0268
     22 H           2.4675   -2.9750    0.0000 H       1  UNL1        0.0265
     23 H           3.2646   -2.9750    0.0000 H       1  UNL1        0.0265
     24 H           3.9441    0.4174    0.0000 H       1  UNL1        0.0265
     25 H           4.3426    1.1077    0.0000 H       1  UNL1        0.0265
     26 H           3.5200    2.5826    0.0000 H       1  UNL1        0.0263
     27 H           3.1215    1.8923    0.0000 H       1  UNL1        0.0263
     28 H           4.9081    1.9631    0.0000 H       1  UNL1        0.0230
     29 H           5.1350    2.8100    0.0000 H       1  UNL1        0.0230
     30 H           4.2881    3.0369    0.0000 H       1  UNL1        0.0230
@<TRIPOS>BOND
     1     1     2    1
     2     1     3    1
     3     1     6    1
     4     1    11    1
     5     2     4    1
     6     2    12    1
     7     2    13    1
     8     3     5    1
     9     3    14    1
    10     3    15    1
    11     4     7    1
    12     4    16    1
    13     4    17    1
    14     5     7    1
    15     5    18    1
    16     5    19    1
    17     6     8    1
    18     6    20    1
    19     6    21    1
    20     7    22    1
    21     7    23    1
    22     8     9    1
    23     8    24    1
    24     8    25    1
    25     9    10    1
    26     9    26    1
    27     9    27    1
    28    10    28    1
    29    10    29    1
    30    10    30    1
