@<TRIPOS>MOLECULE
IMPHY003084
 62 63 0 0 0
SMALL
GASTEIGER

@<TRIPOS>ATOM
      1 O           6.3378    2.2370    0.0000 O.2     1  UNL1       -0.5097
      2 O           8.0698   -0.7630    0.0000 O.2     1  UNL1       -0.5056
      3 O           9.8019    2.2370    0.0000 O.2     1  UNL1       -0.2908
      4 O           9.8019   -0.7630    0.0000 O.2     1  UNL1       -0.2915
      5 O           5.6537   -1.6424    0.0000 O.3     1  UNL1       -0.5055
      6 O           5.0522    1.7690    0.0000 O.3     1  UNL1       -0.5060
      7 O           2.3985   -0.4576    0.0000 O.3     1  UNL1       -0.5056
      8 O           4.3268   -2.7557    0.0000 O.2     1  UNL1       -0.2915
      9 C           8.0698    2.2370    0.0000 C.3     1  UNL1        0.0853
     10 C           7.2038    1.7370    0.0000 C.2     1  UNL1        0.1141
     11 C           7.2038    0.7370    0.0000 C.2     1  UNL1        0.0375
     12 C           8.9358    1.7370    0.0000 C.2     1  UNL1        0.1829
     13 C           8.9358    0.7370    0.0000 C.2     1  UNL1        0.1026
     14 C           6.3378    0.2370    0.0000 C.3     1  UNL1        0.0112
     15 C           8.5698    3.1030    0.0000 C.3     1  UNL1       -0.0458
     16 C           7.5698    3.1030    0.0000 C.3     1  UNL1       -0.0458
     17 C           8.0698    0.2370    0.0000 C.2     1  UNL1        0.1374
     18 C           5.3530    0.0633    0.0000 C.ar    1  UNL1        0.0411
     19 C           9.8019    0.2370    0.0000 C.2     1  UNL1        0.1726
     20 C          10.6679    0.7370    0.0000 C.3     1  UNL1        0.0167
     21 C           5.0109   -0.8763    0.0000 C.ar    1  UNL1        0.1378
     22 C           4.7102    0.8294    0.0000 C.ar    1  UNL1        0.1302
     23 C           4.0261   -1.0500    0.0000 C.ar    1  UNL1        0.1011
     24 C           3.7254    0.6557    0.0000 C.ar    1  UNL1        0.0335
     25 C           3.3833   -0.2840    0.0000 C.ar    1  UNL1        0.1372
     26 C          11.5339    0.2370    0.0000 C.3     1  UNL1       -0.0556
     27 C          10.6679    1.7370    0.0000 C.3     1  UNL1       -0.0556
     28 C           3.6840   -1.9896    0.0000 C.2     1  UNL1        0.1727
     29 C           2.6993   -2.1634    0.0000 C.3     1  UNL1        0.0167
     30 C           3.0826    1.4218    0.0000 C.3     1  UNL1       -0.0327
     31 C           2.3572   -3.1030    0.0000 C.3     1  UNL1       -0.0556
     32 C           2.0565   -1.3973    0.0000 C.3     1  UNL1       -0.0556
     33 H           6.1948   -0.3663    0.0000 H       1  UNL1        0.0366
     34 H           6.1257    0.8196    0.0000 H       1  UNL1        0.0366
     35 H           8.1068    3.4130    0.0000 H       1  UNL1        0.0243
     36 H           7.2598    3.6399    0.0000 H       1  UNL1        0.0243
     37 H           7.0329    2.7930    0.0000 H       1  UNL1        0.0243
     38 H           9.1068    2.7930    0.0000 H       1  UNL1        0.0243
     39 H           8.8798    3.6399    0.0000 H       1  UNL1        0.0243
     40 H           8.0329    3.4130    0.0000 H       1  UNL1        0.0243
     41 H          11.2048    1.0470    0.0000 H       1  UNL1        0.0375
     42 H           5.8008    1.9270    0.0000 H       1  UNL1        0.2917
     43 H          11.2239   -0.3000    0.0000 H       1  UNL1        0.0236
     44 H          12.0708   -0.0730    0.0000 H       1  UNL1        0.0236
     45 H          11.8439    0.7739    0.0000 H       1  UNL1        0.0236
     46 H          11.2879    1.7370    0.0000 H       1  UNL1        0.0236
     47 H          10.6679    2.3570    0.0000 H       1  UNL1        0.0236
     48 H          10.0479    1.7370    0.0000 H       1  UNL1        0.0236
     49 H           8.6068   -1.0730    0.0000 H       1  UNL1        0.2922
     50 H           3.0978   -2.6383    0.0000 H       1  UNL1        0.0375
     51 H           3.5575    1.8203    0.0000 H       1  UNL1        0.0280
     52 H           2.6840    1.8967    0.0000 H       1  UNL1        0.0280
     53 H           2.6076    1.0232    0.0000 H       1  UNL1        0.0280
     54 H           1.7746   -2.8909    0.0000 H       1  UNL1        0.0236
     55 H           2.1451   -3.6856    0.0000 H       1  UNL1        0.0236
     56 H           2.9398   -3.3151    0.0000 H       1  UNL1        0.0236
     57 H           2.5315   -0.9988    0.0000 H       1  UNL1        0.0236
     58 H           1.6580   -0.9224    0.0000 H       1  UNL1        0.0236
     59 H           1.5816   -1.7958    0.0000 H       1  UNL1        0.0236
     60 H           5.4416   -2.2250    0.0000 H       1  UNL1        0.2922
     61 H           4.6537    2.2440    0.0000 H       1  UNL1        0.2922
     62 H           2.0000    0.0173    0.0000 H       1  UNL1        0.2922
@<TRIPOS>BOND
     1     1    10    1
     2     1    42    1
     3     2    17    1
     4     2    49    1
     5     3    12    2
     6     4    19    2
     7     5    21    1
     8     5    60    1
     9     6    22    1
    10     6    61    1
    11     7    25    1
    12     7    62    1
    13     8    28    2
    14     9    10    1
    15     9    12    1
    16     9    15    1
    17     9    16    1
    18    10    11    2
    19    11    14    1
    20    11    17    1
    21    12    13    1
    22    13    17    2
    23    13    19    1
    24    14    18    1
    25    14    33    1
    26    14    34    1
    27    15    38    1
    28    15    39    1
    29    15    40    1
    30    16    35    1
    31    16    36    1
    32    16    37    1
    33    18    21   ar
    34    18    22   ar
    35    19    20    1
    36    20    26    1
    37    20    27    1
    38    20    41    1
    39    21    23   ar
    40    22    24   ar
    41    23    25   ar
    42    23    28    1
    43    24    25   ar
    44    24    30    1
    45    26    43    1
    46    26    44    1
    47    26    45    1
    48    27    46    1
    49    27    47    1
    50    27    48    1
    51    28    29    1
    52    29    31    1
    53    29    32    1
    54    29    50    1
    55    30    51    1
    56    30    52    1
    57    30    53    1
    58    31    54    1
    59    31    55    1
    60    31    56    1
    61    32    57    1
    62    32    58    1
    63    32    59    1
