@<TRIPOS>MOLECULE
IMPHY017528
 43 43 0 0 0
SMALL
GASTEIGER

@<TRIPOS>ATOM
      1 O           3.0000    1.0000    0.0000 O.3     1  UNL1       -0.4583
      2 O           4.7320    1.0000    0.0000 O.2     1  UNL1       -0.2508
      3 C           3.0000   -1.0000    0.0000 C.3     1  UNL1        0.0022
      4 C           3.0000    0.0000    0.0000 C.3     1  UNL1        0.1110
      5 C           2.1340   -1.5000    0.0000 C.3     1  UNL1       -0.0426
      6 C           3.8660   -1.5000    0.0000 C.3     1  UNL1       -0.0281
      7 C           2.1340   -2.5000    0.0000 C.3     1  UNL1       -0.0316
      8 C           3.0000   -3.0000    0.0000 C.2     1  UNL1       -0.0765
      9 C           3.8660   -2.5000    0.0000 C.2     1  UNL1       -0.0846
     10 C           4.0000    0.0000    0.0000 C.3     1  UNL1       -0.0248
     11 C           2.0000    0.0000    0.0000 C.3     1  UNL1       -0.0248
     12 C           3.0000   -4.0000    0.0000 C.3     1  UNL1       -0.0438
     13 C           3.8660    1.5000    0.0000 C.2     1  UNL1        0.3078
     14 C           3.8660    2.5000    0.0000 C.3     1  UNL1        0.0473
     15 C           4.7320    3.0000    0.0000 C.3     1  UNL1       -0.0367
     16 C           4.7320    4.0000    0.0000 C.3     1  UNL1       -0.0622
     17 C           5.5981    2.5000    0.0000 C.3     1  UNL1       -0.0622
     18 H           3.5369   -0.6900    0.0000 H       1  UNL1        0.0342
     19 H           1.9219   -0.9174    0.0000 H       1  UNL1        0.0272
     20 H           1.5234   -1.6077    0.0000 H       1  UNL1        0.0272
     21 H           4.4766   -1.6077    0.0000 H       1  UNL1        0.0311
     22 H           4.0781   -0.9174    0.0000 H       1  UNL1        0.0311
     23 H           1.5234   -2.3923    0.0000 H       1  UNL1        0.0310
     24 H           1.9219   -3.0826    0.0000 H       1  UNL1        0.0310
     25 H           4.4030   -2.8100    0.0000 H       1  UNL1        0.0572
     26 H           4.0000   -0.6200    0.0000 H       1  UNL1        0.0268
     27 H           4.6200    0.0000    0.0000 H       1  UNL1        0.0268
     28 H           4.0000    0.6200    0.0000 H       1  UNL1        0.0268
     29 H           2.0000    0.6200    0.0000 H       1  UNL1        0.0268
     30 H           1.3800    0.0000    0.0000 H       1  UNL1        0.0268
     31 H           2.0000   -0.6200    0.0000 H       1  UNL1        0.0268
     32 H           2.3800   -4.0000    0.0000 H       1  UNL1        0.0274
     33 H           3.0000   -4.6200    0.0000 H       1  UNL1        0.0274
     34 H           3.6200   -4.0000    0.0000 H       1  UNL1        0.0274
     35 H           3.6540    3.0826    0.0000 H       1  UNL1        0.0380
     36 H           3.2554    2.3923    0.0000 H       1  UNL1        0.0380
     37 H           4.7320    2.3800    0.0000 H       1  UNL1        0.0301
     38 H           5.3520    4.0000    0.0000 H       1  UNL1        0.0232
     39 H           4.7320    4.6200    0.0000 H       1  UNL1        0.0232
     40 H           4.1120    4.0000    0.0000 H       1  UNL1        0.0232
     41 H           5.2881    1.9631    0.0000 H       1  UNL1        0.0232
     42 H           6.1350    2.1900    0.0000 H       1  UNL1        0.0232
     43 H           5.9081    3.0369    0.0000 H       1  UNL1        0.0232
@<TRIPOS>BOND
     1     1     4    1
     2     1    13    1
     3     2    13    2
     4     3     4    1
     5     3     5    1
     6     3     6    1
     7     3    18    1
     8     4    10    1
     9     4    11    1
    10     5     7    1
    11     5    19    1
    12     5    20    1
    13     6     9    1
    14     6    21    1
    15     6    22    1
    16     7     8    1
    17     7    23    1
    18     7    24    1
    19     8     9    2
    20     8    12    1
    21     9    25    1
    22    10    26    1
    23    10    27    1
    24    10    28    1
    25    11    29    1
    26    11    30    1
    27    11    31    1
    28    12    32    1
    29    12    33    1
    30    12    34    1
    31    13    14    1
    32    14    15    1
    33    14    35    1
    34    14    36    1
    35    15    16    1
    36    15    17    1
    37    15    37    1
    38    16    38    1
    39    16    39    1
    40    16    40    1
    41    17    41    1
    42    17    42    1
    43    17    43    1
