@<TRIPOS>MOLECULE
IMPHY017801
 19 18 0 0 0
SMALL
GASTEIGER

@<TRIPOS>ATOM
      1 O           3.7320    0.7500    0.0000 O.3     1  UNL1       -0.4646
      2 O           4.5981   -0.7500    0.0000 O.2     1  UNL1       -0.2504
      3 O           6.3301   -0.7500    0.0000 O.2     1  UNL1       -0.2971
      4 C           5.4641    0.7500    0.0000 C.3     1  UNL1        0.1029
      5 C           2.8660    0.2500    0.0000 C.3     1  UNL1        0.0897
      6 C           4.5981    0.2500    0.0000 C.2     1  UNL1        0.3143
      7 C           6.3301    0.2500    0.0000 C.2     1  UNL1        0.1409
      8 C           2.0000    0.7500    0.0000 C.3     1  UNL1       -0.0306
      9 C           7.1962    0.7500    0.0000 C.3     1  UNL1       -0.0055
     10 H           5.8626    1.2250    0.0000 H       1  UNL1        0.0455
     11 H           5.0656    1.2250    0.0000 H       1  UNL1        0.0455
     12 H           2.4675   -0.2249    0.0000 H       1  UNL1        0.0694
     13 H           3.2646   -0.2249    0.0000 H       1  UNL1        0.0694
     14 H           2.3100    1.2869    0.0000 H       1  UNL1        0.0262
     15 H           1.4631    1.0600    0.0000 H       1  UNL1        0.0262
     16 H           1.6900    0.2131    0.0000 H       1  UNL1        0.0262
     17 H           7.5062    0.2131    0.0000 H       1  UNL1        0.0306
     18 H           7.7331    1.0600    0.0000 H       1  UNL1        0.0306
     19 H           6.8862    1.2869    0.0000 H       1  UNL1        0.0306
@<TRIPOS>BOND
     1     1     5    1
     2     1     6    1
     3     2     6    2
     4     3     7    2
     5     4     6    1
     6     4     7    1
     7     4    10    1
     8     4    11    1
     9     5     8    1
    10     5    12    1
    11     5    13    1
    12     7     9    1
    13     8    14    1
    14     8    15    1
    15     8    16    1
    16     9    17    1
    17     9    18    1
    18     9    19    1
