@<TRIPOS>MOLECULE
IMPHY005208
 84 87 0 0 0
SMALL
GASTEIGER

@<TRIPOS>ATOM
      1 O           6.8671    0.9050    0.0000 O.3     1  UNL1       -0.3093
      2 O           9.4651    2.4050    0.0000 O.3     1  UNL1       -0.3721
      3 O           6.0010    2.4050    0.0000 O.2     1  UNL1       -0.4699
      4 O           5.1350    0.9050    0.0000 O.3     1  UNL1       -0.3404
      5 O           6.8671   -1.0950    0.0000 O.3     1  UNL1       -0.3841
      6 O           5.1350   -2.0950    0.0000 O.3     1  UNL1       -0.3864
      7 O           3.4030   -1.0950    0.0000 O.3     1  UNL1       -0.3865
      8 O          12.0632    3.9050    0.0000 O.2     1  UNL1       -0.2972
      9 O           6.0010    5.4050    0.0000 O.3     1  UNL1       -0.4646
     10 O           2.5369    0.4050    0.0000 O.3     1  UNL1       -0.3924
     11 O           7.7331    5.4050    0.0000 O.2     1  UNL1       -0.2452
     12 O          12.0632    0.9050    0.0000 O.2     1  UNL1       -0.2973
     13 O          12.0632   -5.0950    0.0000 O.3     1  UNL1       -0.5068
     14 C           7.7331    3.4050    0.0000 C.3     1  UNL1        0.0081
     15 C           7.7331    2.4050    0.0000 C.3     1  UNL1        0.0467
     16 C           8.5991    3.9050    0.0000 C.3     1  UNL1       -0.0183
     17 C           9.4651    3.4050    0.0000 C.3     1  UNL1        0.0663
     18 C           6.8671    1.9050    0.0000 C.3     1  UNL1        0.2102
     19 C           6.8671    3.9050    0.0000 C.2     1  UNL1        0.0746
     20 C           6.0010    0.4050    0.0000 C.3     1  UNL1        0.1918
     21 C          10.3312    3.9050    0.0000 C.3     1  UNL1        0.0322
     22 C           6.0010   -0.5950    0.0000 C.3     1  UNL1        0.1342
     23 C           5.1350   -1.0950    0.0000 C.3     1  UNL1        0.1141
     24 C          10.3312    1.9050    0.0000 C.3     1  UNL1        0.0723
     25 C           4.2690   -0.5950    0.0000 C.3     1  UNL1        0.1119
     26 C           4.2690    0.4050    0.0000 C.3     1  UNL1        0.1130
     27 C          11.1972    2.4050    0.0000 C.3     1  UNL1        0.0326
     28 C           8.5991    1.9050    0.0000 C.2     1  UNL1       -0.0816
     29 C          11.1972    3.4050    0.0000 C.2     1  UNL1        0.1383
     30 C           6.0010    3.4050    0.0000 C.2     1  UNL1        0.0981
     31 C          10.3312    0.9050    0.0000 C.3     1  UNL1        0.0325
     32 C           3.4030    0.9050    0.0000 C.3     1  UNL1        0.0730
     33 C           6.8671    4.9050    0.0000 C.2     1  UNL1        0.3381
     34 C           8.5991    0.9050    0.0000 C.2     1  UNL1       -0.1022
     35 C          11.1972    0.4050    0.0000 C.2     1  UNL1        0.1361
     36 C          11.1972   -0.5950    0.0000 C.3     1  UNL1        0.0099
     37 C          12.0632   -1.0950    0.0000 C.3     1  UNL1       -0.0210
     38 C           5.1350    4.9050    0.0000 C.3     1  UNL1        0.0820
     39 C          12.0632   -2.0950    0.0000 C.ar    1  UNL1       -0.0467
     40 C          12.9292   -2.5950    0.0000 C.ar    1  UNL1       -0.0551
     41 C          11.1972   -2.5950    0.0000 C.ar    1  UNL1       -0.0551
     42 C          12.9292   -3.5950    0.0000 C.ar    1  UNL1       -0.0199
     43 C          11.1972   -3.5950    0.0000 C.ar    1  UNL1       -0.0199
     44 C          12.0632   -4.0950    0.0000 C.ar    1  UNL1        0.1169
     45 H           8.2700    3.0950    0.0000 H       1  UNL1        0.0360
     46 H           7.7331    1.7850    0.0000 H       1  UNL1        0.0410
     47 H           8.9976    4.3800    0.0000 H       1  UNL1        0.0296
     48 H           8.2006    4.3800    0.0000 H       1  UNL1        0.0296
     49 H           8.9282    3.0950    0.0000 H       1  UNL1        0.0600
     50 H           6.3301    1.5950    0.0000 H       1  UNL1        0.1062
     51 H           6.0010    1.0250    0.0000 H       1  UNL1        0.0939
     52 H          10.7297    4.3800    0.0000 H       1  UNL1        0.0367
     53 H           9.9326    4.3800    0.0000 H       1  UNL1        0.0367
     54 H           6.0010   -1.2150    0.0000 H       1  UNL1        0.0671
     55 H           4.5981   -1.4050    0.0000 H       1  UNL1        0.0648
     56 H           9.7942    1.5950    0.0000 H       1  UNL1        0.0604
     57 H           3.7320   -0.2850    0.0000 H       1  UNL1        0.0647
     58 H           4.2690    1.0250    0.0000 H       1  UNL1        0.0647
     59 H          11.4092    1.8224    0.0000 H       1  UNL1        0.0367
     60 H          11.8078    2.5127    0.0000 H       1  UNL1        0.0367
     61 H           9.1360    2.2150    0.0000 H       1  UNL1        0.0571
     62 H           5.4641    3.7150    0.0000 H       1  UNL1        0.1029
     63 H           9.7206    1.0127    0.0000 H       1  UNL1        0.0367
     64 H          10.1191    0.3224    0.0000 H       1  UNL1        0.0367
     65 H           3.8015    1.3800    0.0000 H       1  UNL1        0.0584
     66 H           3.0044    1.3800    0.0000 H       1  UNL1        0.0584
     67 H           6.8671   -1.7150    0.0000 H       1  UNL1        0.2101
     68 H           4.5981   -2.4050    0.0000 H       1  UNL1        0.2100
     69 H           3.4030   -1.7150    0.0000 H       1  UNL1        0.2100
     70 H           8.0622    0.5950    0.0000 H       1  UNL1        0.0532
     71 H           9.1360    0.5950    0.0000 H       1  UNL1        0.0532
     72 H          10.5866   -0.4873    0.0000 H       1  UNL1        0.0345
     73 H          10.9851   -1.1776    0.0000 H       1  UNL1        0.0345
     74 H           2.0000    0.7150    0.0000 H       1  UNL1        0.2095
     75 H          12.6738   -1.2027    0.0000 H       1  UNL1        0.0317
     76 H          12.2753   -0.5124    0.0000 H       1  UNL1        0.0317
     77 H           4.8250    5.4419    0.0000 H       1  UNL1        0.0661
     78 H           4.5981    4.5950    0.0000 H       1  UNL1        0.0661
     79 H           5.4450    4.3681    0.0000 H       1  UNL1        0.0661
     80 H          13.4662   -2.2850    0.0000 H       1  UNL1        0.0621
     81 H          10.6603   -2.2850    0.0000 H       1  UNL1        0.0621
     82 H          13.4662   -3.9050    0.0000 H       1  UNL1        0.0654
     83 H          10.6603   -3.9050    0.0000 H       1  UNL1        0.0654
     84 H          12.6002   -5.4050    0.0000 H       1  UNL1        0.2921
@<TRIPOS>BOND
     1    18     1    1
     2    20     1    1
     3     2    17    1
     4     2    24    1
     5     3    18    1
     6     3    30    1
     7     4    20    1
     8     4    26    1
     9    22     5    1
    10     5    67    1
    11    23     6    1
    12     6    68    1
    13    25     7    1
    14     7    69    1
    15     8    29    2
    16     9    33    1
    17     9    38    1
    18    10    32    1
    19    10    74    1
    20    11    33    2
    21    12    35    2
    22    13    44    1
    23    13    84    1
    24    14    15    1
    25    14    16    1
    26    14    19    1
    27    14    45    1
    28    15    18    1
    29    15    28    1
    30    15    46    1
    31    17    16    1
    32    16    47    1
    33    16    48    1
    34    17    21    1
    35    17    49    1
    36    18    50    1
    37    19    30    2
    38    19    33    1
    39    20    22    1
    40    20    51    1
    41    21    29    1
    42    21    52    1
    43    21    53    1
    44    22    23    1
    45    22    54    1
    46    23    25    1
    47    23    55    1
    48    24    27    1
    49    24    31    1
    50    24    56    1
    51    25    26    1
    52    25    57    1
    53    26    32    1
    54    26    58    1
    55    27    29    1
    56    27    59    1
    57    27    60    1
    58    28    34    2
    59    28    61    1
    60    30    62    1
    61    31    35    1
    62    31    63    1
    63    31    64    1
    64    32    65    1
    65    32    66    1
    66    34    70    1
    67    34    71    1
    68    35    36    1
    69    36    37    1
    70    36    72    1
    71    36    73    1
    72    37    39    1
    73    37    75    1
    74    37    76    1
    75    38    77    1
    76    38    78    1
    77    38    79    1
    78    39    40   ar
    79    39    41   ar
    80    40    42   ar
    81    40    80    1
    82    41    43   ar
    83    41    81    1
    84    42    44   ar
    85    42    82    1
    86    43    44   ar
    87    43    83    1
