@<TRIPOS>MOLECULE
IMPHY010365
 34 37 0 0 0
SMALL
GASTEIGER

@<TRIPOS>ATOM
      1 O           6.0010   -1.7500    0.0000 O.3     1  UNL1       -0.3157
      2 O           5.1350   -0.2500    0.0000 O.3     1  UNL1       -0.4440
      3 O           3.4030   -3.2500    0.0000 O.3     1  UNL1       -0.2173
      4 O           5.1350   -4.2500    0.0000 O.3     1  UNL1       -0.2176
      5 O           3.4030   -1.2500    0.0000 O.3     1  UNL1       -0.2135
      6 O           6.8671   -4.2500    0.0000 O.3     1  UNL1       -0.2176
      7 O           6.8671    1.7500    0.0000 O.2     1  UNL1       -0.4500
      8 O           6.8671   -1.2500    0.0000 O.2     1  UNL1       -0.2830
      9 O           8.6155   -1.2846    0.0000 O.3     1  UNL1       -0.2828
     10 O          10.3972   -0.2741    0.0000 O.3     1  UNL1       -0.2797
     11 O          10.3972    1.7741    0.0000 O.3     1  UNL1       -0.2829
     12 O           4.2690    4.2500    0.0000 O.3     1  UNL1       -0.2831
     13 O           2.5369    3.2500    0.0000 O.3     1  UNL1       -0.2831
     14 C           4.2690   -2.7500    0.0000 C.3     1  UNL1        0.2211
     15 C           5.1350   -3.2500    0.0000 C.3     1  UNL1        0.2145
     16 C           4.2690   -1.7500    0.0000 C.3     1  UNL1        0.2542
     17 C           6.0010   -2.7500    0.0000 C.3     1  UNL1        0.1846
     18 C           5.1350   -1.2500    0.0000 C.3     1  UNL1        0.3220
     19 C           6.8671   -3.2500    0.0000 C.3     1  UNL1        0.2142
     20 C           6.0010    0.2500    0.0000 C.ar    1  UNL1        0.2144
     21 C           6.0010    1.2500    0.0000 C.ar    1  UNL1        0.1823
     22 C           6.8671   -0.2500    0.0000 C.ar    1  UNL1        0.2385
     23 C           7.7331    0.2500    0.0000 C.ar    1  UNL1        0.1189
     24 C           7.7331    1.2500    0.0000 C.ar    1  UNL1        0.1551
     25 C           5.1350    1.7500    0.0000 C.ar    1  UNL1        0.0411
     26 C           8.6270   -0.2847    0.0000 C.ar    1  UNL1        0.2436
     27 C           8.6270    1.7847    0.0000 C.ar    1  UNL1        0.0832
     28 C           5.1350    2.7500    0.0000 C.ar    1  UNL1        0.0485
     29 C           4.2690    1.2500    0.0000 C.ar    1  UNL1        0.0066
     30 C           9.5331    0.2292    0.0000 C.ar    1  UNL1        0.2730
     31 C           9.5331    1.2708    0.0000 C.ar    1  UNL1        0.2406
     32 C           4.2690    3.2500    0.0000 C.ar    1  UNL1        0.2344
     33 C           3.4030    1.7500    0.0000 C.ar    1  UNL1        0.0455
     34 C           3.4030    2.7500    0.0000 C.ar    1  UNL1        0.2343
@<TRIPOS>BOND
     1     1    17    1
     2     1    18    1
     3     2    20    1
     4     6    19    1
     5     7    21   ar
     6     7    24   ar
     7     8    22    2
     8     9    26    1
     9    10    30    1
    10    11    31    1
    11    12    32    1
    12    13    34    1
    13    14     3    1
    14    14    15    1
    15    14    16    1
    16    15     4    1
    17    15    17    1
    18    16     5    1
    19    16    18    1
    20    17    19    1
    21    18     2    1
    22    20    21   ar
    23    20    22   ar
    24    21    25    1
    25    22    23   ar
    26    23    24   ar
    27    23    26   ar
    28    24    27   ar
    29    25    28   ar
    30    25    29   ar
    31    26    30   ar
    32    27    31   ar
    33    28    32   ar
    34    29    33   ar
    35    30    31   ar
    36    32    34   ar
    37    33    34   ar
