@<TRIPOS>MOLECULE
IMPHY003854
 38 39 0 0 0
SMALL
GASTEIGER

@<TRIPOS>ATOM
      1 O           8.1494   -0.8334    0.0000 O.3     1  UNL1       -0.4574
      2 O           9.7290   -0.0208    0.0000 O.2     1  UNL1       -0.2453
      3 O           2.0086   -0.0593    0.0000 O.2     1  UNL1       -0.2977
      4 C           7.2017   -0.5334    0.0000 C.3     1  UNL1        0.1112
      5 C           7.1967    0.4666    0.0000 C.3     1  UNL1        0.0309
      6 C           6.4230   -1.1608    0.0000 C.3     1  UNL1       -0.0088
      7 C           5.4470   -0.9431    0.0000 C.3     1  UNL1       -0.0194
      8 C           6.4118    1.0862    0.0000 C.3     1  UNL1       -0.0241
      9 C           5.0086   -0.0443    0.0000 C.2     1  UNL1       -0.0701
     10 C           8.1414    0.7760    0.0000 C.2     1  UNL1        0.0364
     11 C           5.4380    0.8588    0.0000 C.2     1  UNL1       -0.0838
     12 C           4.0086   -0.0493    0.0000 C.3     1  UNL1       -0.0248
     13 C           4.8274   -1.7281    0.0000 C.3     1  UNL1       -0.0586
     14 C           8.7290   -0.0258    0.0000 C.2     1  UNL1        0.3353
     15 C           3.5043    0.8142    0.0000 C.3     1  UNL1        0.0092
     16 C           8.4473    1.7281    0.0000 C.2     1  UNL1       -0.0883
     17 C           2.5043    0.8092    0.0000 C.2     1  UNL1        0.1306
     18 C           2.0000    1.6727    0.0000 C.3     1  UNL1       -0.0061
     19 H           7.3587   -1.3688    0.0000 H       1  UNL1        0.0740
     20 H           7.3454    1.3035    0.0000 H       1  UNL1        0.0390
     21 H           6.1568   -1.7207    0.0000 H       1  UNL1        0.0307
     22 H           6.9096   -1.5449    0.0000 H       1  UNL1        0.0307
     23 H           4.8305   -0.8768    0.0000 H       1  UNL1        0.0344
     24 H           6.8946    1.4751    0.0000 H       1  UNL1        0.0314
     25 H           6.1400    1.6434    0.0000 H       1  UNL1        0.0314
     26 H           5.0490    1.3416    0.0000 H       1  UNL1        0.0572
     27 H           3.4271   -0.2643    0.0000 H       1  UNL1        0.0314
     28 H           4.1193   -0.6594    0.0000 H       1  UNL1        0.0314
     29 H           4.3407   -1.3439    0.0000 H       1  UNL1        0.0235
     30 H           4.4432   -2.2147    0.0000 H       1  UNL1        0.0235
     31 H           5.3140   -2.1122    0.0000 H       1  UNL1        0.0235
     32 H           4.0858    1.0291    0.0000 H       1  UNL1        0.0345
     33 H           3.3936    1.4242    0.0000 H       1  UNL1        0.0345
     34 H           9.0534    1.8590    0.0000 H       1  UNL1        0.0540
     35 H           8.0310    2.1875    0.0000 H       1  UNL1        0.0540
     36 H           2.5354    1.9854    0.0000 H       1  UNL1        0.0306
     37 H           1.6873    2.2081    0.0000 H       1  UNL1        0.0306
     38 H           1.4646    1.3600    0.0000 H       1  UNL1        0.0306
@<TRIPOS>BOND
     1     1     4    1
     2     1    14    1
     3     2    14    2
     4     3    17    2
     5     4     5    1
     6     4     6    1
     7     4    19    1
     8     5     8    1
     9     5    10    1
    10     5    20    1
    11     6     7    1
    12     6    21    1
    13     6    22    1
    14     7     9    1
    15     7    13    1
    16     7    23    1
    17     8    11    1
    18     8    24    1
    19     8    25    1
    20     9    11    2
    21     9    12    1
    22    10    14    1
    23    10    16    2
    24    11    26    1
    25    12    15    1
    26    12    27    1
    27    12    28    1
    28    13    29    1
    29    13    30    1
    30    13    31    1
    31    15    17    1
    32    15    32    1
    33    15    33    1
    34    16    34    1
    35    16    35    1
    36    17    18    1
    37    18    36    1
    38    18    37    1
    39    18    38    1
