@<TRIPOS>MOLECULE
IMPHY001292
 82 86 0 0 0
SMALL
GASTEIGER

@<TRIPOS>ATOM
      1 O           4.7789    0.4487    0.0000 O.3     1  UNL1       -0.3837
      2 O          10.9848    3.0930    0.0000 O.3     1  UNL1       -0.3912
      3 O           3.8493   -3.0931    0.0000 O.3     1  UNL1       -0.4802
      4 O           5.5813   -3.1064    0.0000 O.2     1  UNL1       -0.2504
      5 C           7.3770   -0.0513    0.0000 C.3     1  UNL1       -0.0170
      6 C           6.5109   -0.5513    0.0000 C.3     1  UNL1        0.0066
      7 C           7.3770    0.9487    0.0000 C.3     1  UNL1       -0.0112
      8 C           5.6449   -0.0513    0.0000 C.3     1  UNL1        0.0940
      9 C           8.2709    1.4833    0.0000 C.3     1  UNL1       -0.0218
     10 C           4.7349   -0.5582    0.0000 C.3     1  UNL1        0.0105
     11 C           9.1770    0.9695    0.0000 C.3     1  UNL1       -0.0276
     12 C           4.7269   -1.5998    0.0000 C.3     1  UNL1        0.0736
     13 C           8.2709   -0.5860    0.0000 C.3     1  UNL1       -0.0462
     14 C           6.5270   -1.5928    0.0000 C.3     1  UNL1       -0.0432
     15 C           9.1770   -0.0722    0.0000 C.3     1  UNL1       -0.0486
     16 C          10.1208    1.5047    0.0000 C.3     1  UNL1       -0.0056
     17 C           5.6290   -2.1206    0.0000 C.3     1  UNL1       -0.0363
     18 C           3.8081    0.0059    0.0000 C.3     1  UNL1       -0.0345
     19 C           8.2458    2.5680    0.0000 C.3     1  UNL1       -0.0444
     20 C           6.5109    1.4487    0.0000 C.2     1  UNL1       -0.0811
     21 C           5.6449    0.9487    0.0000 C.2     1  UNL1       -0.0557
     22 C           7.7191   -0.9910    0.0000 C.3     1  UNL1       -0.0584
     23 C           7.1537   -1.3174    0.0000 C.3     1  UNL1       -0.0561
     24 C           3.7914   -2.1495    0.0000 C.3     1  UNL1       -0.0366
     25 C           7.4010    1.9766    0.0000 C.3     1  UNL1       -0.0587
     26 C          10.1208    2.5897    0.0000 C.3     1  UNL1        0.0606
     27 C           2.8602   -0.5220    0.0000 C.3     1  UNL1       -0.0409
     28 C           9.1770    3.1250    0.0000 C.3     1  UNL1       -0.0258
     29 C           2.8518   -1.6070    0.0000 C.3     1  UNL1       -0.0492
     30 C           4.7192   -2.5997    0.0000 C.2     1  UNL1        0.3113
     31 C          11.1207    1.5009    0.0000 C.3     1  UNL1       -0.0572
     32 C          10.6174    0.6368    0.0000 C.3     1  UNL1       -0.0572
     33 C           3.8273    1.0057    0.0000 C.3     1  UNL1       -0.0618
     34 C           2.0000   -0.0121    0.0000 C.3     1  UNL1       -0.0622
     35 H           8.1163    0.5294    0.0000 H       1  UNL1        0.0354
     36 H           5.4661   -0.9917    0.0000 H       1  UNL1        0.0345
     37 H           9.9114    0.5416    0.0000 H       1  UNL1        0.0312
     38 H           7.8663   -1.0558    0.0000 H       1  UNL1        0.0271
     39 H           8.6645   -1.0650    0.0000 H       1  UNL1        0.0271
     40 H           6.7450   -2.1732    0.0000 H       1  UNL1        0.0272
     41 H           7.1361   -1.4773    0.0000 H       1  UNL1        0.0272
     42 H           9.3860   -0.6558    0.0000 H       1  UNL1        0.0268
     43 H           9.7878    0.0339    0.0000 H       1  UNL1        0.0268
     44 H           5.2316   -2.5966    0.0000 H       1  UNL1        0.0276
     45 H           6.0299   -2.5935    0.0000 H       1  UNL1        0.0276
     46 H           4.3515    0.3044    0.0000 H       1  UNL1        0.0305
     47 H           8.0233    3.1467    0.0000 H       1  UNL1        0.0272
     48 H           7.6376    2.4478    0.0000 H       1  UNL1        0.0272
     49 H           6.5109    2.0687    0.0000 H       1  UNL1        0.0573
     50 H           5.1080    1.2587    0.0000 H       1  UNL1        0.0598
     51 H           7.1365   -1.2031    0.0000 H       1  UNL1        0.0235
     52 H           7.9312   -1.5736    0.0000 H       1  UNL1        0.0235
     53 H           8.3017   -0.7789    0.0000 H       1  UNL1        0.0235
     54 H           6.6788   -1.7159    0.0000 H       1  UNL1        0.0236
     55 H           7.5522   -1.7923    0.0000 H       1  UNL1        0.0236
     56 H           7.6287   -0.9189    0.0000 H       1  UNL1        0.0236
     57 H           3.3942   -2.6255    0.0000 H       1  UNL1        0.0276
     58 H           4.1924   -2.6224    0.0000 H       1  UNL1        0.0276
     59 H           7.7069    2.5159    0.0000 H       1  UNL1        0.0235
     60 H           6.8617    2.2825    0.0000 H       1  UNL1        0.0235
     61 H           7.0952    1.4373    0.0000 H       1  UNL1        0.0235
     62 H          10.6583    2.2808    0.0000 H       1  UNL1        0.0599
     63 H           2.8686    0.0979    0.0000 H       1  UNL1        0.0301
     64 H           9.5706    3.6040    0.0000 H       1  UNL1        0.0290
     65 H           8.7724    3.5947    0.0000 H       1  UNL1        0.0290
     66 H           2.2418   -1.4962    0.0000 H       1  UNL1        0.0268
     67 H           2.6383   -2.1891    0.0000 H       1  UNL1        0.0268
     68 H           4.7789    1.0687    0.0000 H       1  UNL1        0.2106
     69 H          11.1184    0.8809    0.0000 H       1  UNL1        0.0236
     70 H          11.7407    1.4985    0.0000 H       1  UNL1        0.0236
     71 H          11.1231    2.1209    0.0000 H       1  UNL1        0.0236
     72 H          10.0793    0.3288    0.0000 H       1  UNL1        0.0236
     73 H          10.9253    0.0986    0.0000 H       1  UNL1        0.0236
     74 H          11.1555    0.9447    0.0000 H       1  UNL1        0.0236
     75 H           4.4472    0.9938    0.0000 H       1  UNL1        0.0233
     76 H           3.8393    1.6256    0.0000 H       1  UNL1        0.0233
     77 H           3.2075    1.0177    0.0000 H       1  UNL1        0.0233
     78 H           2.3162    0.5212    0.0000 H       1  UNL1        0.0233
     79 H           1.4667    0.3041    0.0000 H       1  UNL1        0.0233
     80 H           1.6838   -0.5454    0.0000 H       1  UNL1        0.0233
     81 H          10.9825    3.7130    0.0000 H       1  UNL1        0.2098
     82 H           3.8445   -3.7130    0.0000 H       1  UNL1        0.2951
@<TRIPOS>BOND
     1     8     1    1
     2     1    68    1
     3    26     2    1
     4     2    81    1
     5     3    30    1
     6     3    82    1
     7     4    30    2
     8     5     6    1
     9     5     7    1
    10     5    13    1
    11     5    22    1
    12     6     8    1
    13     6    14    1
    14     6    23    1
    15     7     9    1
    16     7    20    1
    17     7    35    1
    18     8    10    1
    19     8    21    1
    20     9    11    1
    21     9    19    1
    22     9    25    1
    23    10    12    1
    24    10    18    1
    25    10    36    1
    26    11    15    1
    27    11    16    1
    28    11    37    1
    29    12    17    1
    30    12    24    1
    31    12    30    1
    32    13    15    1
    33    13    38    1
    34    13    39    1
    35    14    17    1
    36    14    40    1
    37    14    41    1
    38    15    42    1
    39    15    43    1
    40    16    26    1
    41    16    31    1
    42    16    32    1
    43    17    44    1
    44    17    45    1
    45    18    27    1
    46    18    33    1
    47    18    46    1
    48    19    28    1
    49    19    47    1
    50    19    48    1
    51    20    21    2
    52    20    49    1
    53    21    50    1
    54    22    51    1
    55    22    52    1
    56    22    53    1
    57    23    54    1
    58    23    55    1
    59    23    56    1
    60    24    29    1
    61    24    57    1
    62    24    58    1
    63    25    59    1
    64    25    60    1
    65    25    61    1
    66    26    28    1
    67    26    62    1
    68    27    29    1
    69    27    34    1
    70    27    63    1
    71    28    64    1
    72    28    65    1
    73    29    66    1
    74    29    67    1
    75    31    69    1
    76    31    70    1
    77    31    71    1
    78    32    72    1
    79    32    73    1
    80    32    74    1
    81    33    75    1
    82    33    76    1
    83    33    77    1
    84    34    78    1
    85    34    79    1
    86    34    80    1
