@<TRIPOS>MOLECULE
IMPHY001147
 48 51 0 0 0
SMALL
GASTEIGER

@<TRIPOS>ATOM
      1 O           5.8357    3.4436    0.0000 O.3     1  UNL1       -0.3873
      2 N           5.4354    1.0580    0.0000 N.3     1  UNL1       -0.2990
      3 N           2.6197   -1.5778    0.0000 N.ar    1  UNL1       -0.3577
      4 C           3.6693    1.7008    0.0000 C.3     1  UNL1       -0.0253
      5 C           5.0697    2.8008    0.0000 C.3     1  UNL1        0.0788
      6 C           4.0637    2.6401    0.0000 C.3     1  UNL1       -0.0188
      7 C           4.6693    1.7008    0.0000 C.3     1  UNL1        0.0019
      8 C           5.7370    2.0310    0.0000 C.3     1  UNL1        0.0278
      9 C           2.9033    1.0580    0.0000 C.3     1  UNL1       -0.0436
     10 C           4.8960    3.7856    0.0000 C.3     1  UNL1       -0.0256
     11 C           5.6090    0.0732    0.0000 C.3     1  UNL1        0.0031
     12 C           2.7296    0.0732    0.0000 C.3     1  UNL1       -0.0119
     13 C           5.1090   -0.7929    0.0000 C.3     1  UNL1       -0.0126
     14 C           3.2296   -0.7929    0.0000 C.ar    1  UNL1        0.0202
     15 C           4.1693   -1.1349    0.0000 C.ar    1  UNL1       -0.0179
     16 C           3.9564    4.1276    0.0000 C.3     1  UNL1       -0.0626
     17 C           4.1321   -2.1283    0.0000 C.ar    1  UNL1        0.0031
     18 C           3.1762   -2.4014    0.0000 C.ar    1  UNL1        0.0469
     19 C           4.8873   -2.8366    0.0000 C.ar    1  UNL1       -0.0523
     20 C           2.9094   -3.4019    0.0000 C.ar    1  UNL1       -0.0378
     21 C           4.6437   -3.8430    0.0000 C.ar    1  UNL1       -0.0611
     22 C           3.6481   -4.1276    0.0000 C.ar    1  UNL1       -0.0598
     23 H           2.9851    2.2050    0.0000 H       1  UNL1        0.0314
     24 H           4.0804    3.2598    0.0000 H       1  UNL1        0.0296
     25 H           3.4576    2.7707    0.0000 H       1  UNL1        0.0296
     26 H           5.1873    2.0415    0.0000 H       1  UNL1        0.0429
     27 H           4.4915    2.2947    0.0000 H       1  UNL1        0.0429
     28 H           6.2853    1.7415    0.0000 H       1  UNL1        0.0455
     29 H           6.1226    2.5165    0.0000 H       1  UNL1        0.0455
     30 H           2.6577    1.6273    0.0000 H       1  UNL1        0.0272
     31 H           2.2875    0.9860    0.0000 H       1  UNL1        0.0272
     32 H           5.5160    3.7856    0.0000 H       1  UNL1        0.0291
     33 H           5.0037    4.3961    0.0000 H       1  UNL1        0.0291
     34 H           6.0345   -0.3778    0.0000 H       1  UNL1        0.0430
     35 H           6.1631    0.3514    0.0000 H       1  UNL1        0.0430
     36 H           2.1756    0.3514    0.0000 H       1  UNL1        0.0328
     37 H           2.3042   -0.3778    0.0000 H       1  UNL1        0.0328
     38 H           5.1451   -1.4118    0.0000 H       1  UNL1        0.0326
     39 H           5.7123   -0.9358    0.0000 H       1  UNL1        0.0326
     40 H           6.4184    3.2315    0.0000 H       1  UNL1        0.2102
     41 H           4.1684    4.7102    0.0000 H       1  UNL1        0.0231
     42 H           3.3738    4.3396    0.0000 H       1  UNL1        0.0231
     43 H           3.7443    3.5450    0.0000 H       1  UNL1        0.0231
     44 H           2.0000   -1.5572    0.0000 H       1  UNL1        0.1656
     45 H           5.4814   -2.6594    0.0000 H       1  UNL1        0.0624
     46 H           2.3114   -3.5654    0.0000 H       1  UNL1        0.0638
     47 H           5.0910   -4.2724    0.0000 H       1  UNL1        0.0618
     48 H           3.4952   -4.7284    0.0000 H       1  UNL1        0.0618
@<TRIPOS>BOND
     1     5     1    1
     2     1    40    1
     3     2     7    1
     4     2     8    1
     5     2    11    1
     6     3    14   ar
     7     3    18   ar
     8     3    44    1
     9     4     6    1
    10     4     7    1
    11     4     9    1
    12     4    23    1
    13     5     6    1
    14     5     8    1
    15     5    10    1
    16     6    24    1
    17     6    25    1
    18     7    26    1
    19     7    27    1
    20     8    28    1
    21     8    29    1
    22     9    12    1
    23     9    30    1
    24     9    31    1
    25    10    16    1
    26    10    32    1
    27    10    33    1
    28    11    13    1
    29    11    34    1
    30    11    35    1
    31    12    14    1
    32    12    36    1
    33    12    37    1
    34    13    15    1
    35    13    38    1
    36    13    39    1
    37    14    15   ar
    38    15    17   ar
    39    16    41    1
    40    16    42    1
    41    16    43    1
    42    17    18   ar
    43    17    19   ar
    44    18    20   ar
    45    19    21   ar
    46    19    45    1
    47    20    22   ar
    48    20    46    1
    49    21    22   ar
    50    21    47    1
    51    22    48    1
