@<TRIPOS>MOLECULE
IMPHY006879
 48 52 0 0 0
SMALL
GASTEIGER

@<TRIPOS>ATOM
      1 O           4.6436   -2.9917    0.0000 O.3     1  UNL1       -0.3652
      2 O           3.7230   -1.8420    0.0000 O.3     1  UNL1       -0.4569
      3 O           7.0268   -3.8305    0.0000 O.3     1  UNL1       -0.3888
      4 O           4.5447    1.3234    0.0000 O.3     1  UNL1       -0.4582
      5 O           2.0000   -1.4098    0.0000 O.2     1  UNL1       -0.2453
      6 O           3.8479    3.6140    0.0000 O.3     1  UNL1       -0.3567
      7 O           6.1053    2.0749    0.0000 O.2     1  UNL1       -0.2475
      8 C           5.6146   -2.7529    0.0000 C.3     1  UNL1        0.1251
      9 C           5.4786   -1.7682    0.0000 C.3     1  UNL1        0.0371
     10 C           6.3796   -1.3343    0.0000 C.3     1  UNL1       -0.0086
     11 C           6.5929   -2.9296    0.0000 C.3     1  UNL1        0.0872
     12 C           4.5777   -1.3343    0.0000 C.3     1  UNL1        0.1199
     13 C           5.3359   -3.7133    0.0000 C.3     1  UNL1        0.0804
     14 C           7.0647   -2.0546    0.0000 C.3     1  UNL1       -0.0171
     15 C           4.3551   -0.3594    0.0000 C.3     1  UNL1        0.0651
     16 C           6.6021   -0.3594    0.0000 C.2     1  UNL1       -0.0695
     17 C           4.9786    0.4225    0.0000 C.3     1  UNL1        0.1172
     18 C           5.9786    0.4225    0.0000 C.3     1  UNL1        0.0063
     19 C           3.3648   -0.2728    0.0000 C.2     1  UNL1        0.0396
     20 C           2.9749   -1.1873    0.0000 C.2     1  UNL1        0.3354
     21 C           7.5770   -0.1369    0.0000 C.2     1  UNL1       -0.0991
     22 C           2.8504    0.5847    0.0000 C.2     1  UNL1       -0.0882
     23 C           4.6742    3.0506    0.0000 C.3     1  UNL1        0.1857
     24 C           5.1081    2.1497    0.0000 C.2     1  UNL1        0.3417
     25 C           3.7732    2.6168    0.0000 C.3     1  UNL1        0.0884
     26 C           5.2375    3.8769    0.0000 C.3     1  UNL1       -0.0231
     27 H           4.7916   -2.2687    0.0000 H       1  UNL1        0.0372
     28 H           7.1993   -1.1092    0.0000 H       1  UNL1        0.0351
     29 H           7.2127   -2.9438    0.0000 H       1  UNL1        0.0623
     30 H           4.6147   -2.1835    0.0000 H       1  UNL1        0.0745
     31 H           4.9698   -4.2137    0.0000 H       1  UNL1        0.0590
     32 H           5.8922   -3.9869    0.0000 H       1  UNL1        0.0590
     33 H           7.5765   -2.4046    0.0000 H       1  UNL1        0.0297
     34 H           7.4666   -1.5824    0.0000 H       1  UNL1        0.0297
     35 H           4.0200    0.4218    0.0000 H       1  UNL1        0.0423
     36 H           5.3085    0.9474    0.0000 H       1  UNL1        0.0744
     37 H           6.5372    0.6915    0.0000 H       1  UNL1        0.0346
     38 H           5.8407    1.0269    0.0000 H       1  UNL1        0.0346
     39 H           7.6450   -3.8769    0.0000 H       1  UNL1        0.2099
     40 H           7.9988   -0.5913    0.0000 H       1  UNL1        0.0535
     41 H           7.7598    0.4556    0.0000 H       1  UNL1        0.0535
     42 H           3.1514    1.1268    0.0000 H       1  UNL1        0.0540
     43 H           2.2305    0.5744    0.0000 H       1  UNL1        0.0540
     44 H           3.1563    2.5550    0.0000 H       1  UNL1        0.0594
     45 H           3.9411    2.0199    0.0000 H       1  UNL1        0.0594
     46 H           5.7498    3.5276    0.0000 H       1  UNL1        0.0264
     47 H           5.5868    4.3891    0.0000 H       1  UNL1        0.0264
     48 H           4.7252    4.2261    0.0000 H       1  UNL1        0.0264
@<TRIPOS>BOND
     1     8     1    1
     2     1    13    1
     3     2    12    1
     4     2    20    1
     5    11     3    1
     6     3    39    1
     7    17     4    1
     8     4    24    1
     9     5    20    2
    10     6    23    1
    11     6    25    1
    12     7    24    2
    13     8     9    1
    14     8    11    1
    15     8    13    1
    16     9    10    1
    17     9    12    1
    18     9    27    1
    19    10    14    1
    20    10    16    1
    21    10    28    1
    22    11    14    1
    23    11    29    1
    24    12    15    1
    25    12    30    1
    26    13    31    1
    27    13    32    1
    28    14    33    1
    29    14    34    1
    30    15    17    1
    31    15    19    1
    32    15    35    1
    33    16    18    1
    34    16    21    2
    35    17    18    1
    36    17    36    1
    37    18    37    1
    38    18    38    1
    39    19    20    1
    40    19    22    2
    41    21    40    1
    42    21    41    1
    43    22    42    1
    44    22    43    1
    45    23    24    1
    46    23    25    1
    47    23    26    1
    48    25    44    1
    49    25    45    1
    50    26    46    1
    51    26    47    1
    52    26    48    1
