@<TRIPOS>MOLECULE
IMPHY012938
 57 59 0 0 0
SMALL
GASTEIGER

@<TRIPOS>ATOM
      1 O           8.5991    1.0000    0.0000 O.3     1  UNL1       -0.3301
      2 O           6.8671   -1.0000    0.0000 O.3     1  UNL1       -0.4529
      3 O           8.5991   -2.0000    0.0000 O.3     1  UNL1       -0.3852
      4 O          10.3312    1.0000    0.0000 O.3     1  UNL1       -0.4608
      5 O          10.3312   -1.0000    0.0000 O.3     1  UNL1       -0.3829
      6 O           6.8671    2.0000    0.0000 O.3     1  UNL1       -0.3923
      7 O           7.7331   -2.5000    0.0000 O.2     1  UNL1       -0.2456
      8 O          11.1972    5.5000    0.0000 O.3     1  UNL1       -0.3730
      9 O           2.5369   -3.5000    0.0000 O.3     1  UNL1       -0.5033
     10 O           2.5369   -5.5000    0.0000 O.3     1  UNL1       -0.5033
     11 N           8.5991    6.0000    0.0000 N.1     1  UNL1       -0.1935
     12 C           7.7331   -0.5000    0.0000 C.3     1  UNL1        0.1599
     13 C           8.5991   -1.0000    0.0000 C.3     1  UNL1        0.1262
     14 C           7.7331    0.5000    0.0000 C.3     1  UNL1        0.1250
     15 C           9.4651   -0.5000    0.0000 C.3     1  UNL1        0.1465
     16 C           9.4651    0.5000    0.0000 C.3     1  UNL1        0.2309
     17 C           6.8671    1.0000    0.0000 C.3     1  UNL1        0.0741
     18 C          10.3312    2.0000    0.0000 C.ar    1  UNL1        0.1240
     19 C           6.8671   -2.0000    0.0000 C.2     1  UNL1        0.3324
     20 C          11.1972    2.5000    0.0000 C.ar    1  UNL1       -0.0195
     21 C           9.4651    2.5000    0.0000 C.ar    1  UNL1       -0.0195
     22 C           6.0010   -2.5000    0.0000 C.2     1  UNL1        0.0231
     23 C          11.1972    3.5000    0.0000 C.ar    1  UNL1       -0.0517
     24 C           9.4651    3.5000    0.0000 C.ar    1  UNL1       -0.0517
     25 C          10.3312    4.0000    0.0000 C.ar    1  UNL1       -0.0050
     26 C           6.0010   -3.5000    0.0000 C.2     1  UNL1       -0.0477
     27 C          10.3312    5.0000    0.0000 C.3     1  UNL1        0.1661
     28 C           5.1350   -4.0000    0.0000 C.ar    1  UNL1       -0.0211
     29 C           4.2690   -3.5000    0.0000 C.ar    1  UNL1       -0.0094
     30 C           5.1350   -5.0000    0.0000 C.ar    1  UNL1       -0.0509
     31 C           9.4651    5.5000    0.0000 C.1     1  UNL1        0.0988
     32 C           3.4030   -4.0000    0.0000 C.ar    1  UNL1        0.1588
     33 C           4.2690   -5.5000    0.0000 C.ar    1  UNL1       -0.0160
     34 C           3.4030   -5.0000    0.0000 C.ar    1  UNL1        0.1582
     35 H           7.7331   -1.1200    0.0000 H       1  UNL1        0.0788
     36 H           9.1360   -1.3100    0.0000 H       1  UNL1        0.0659
     37 H           7.7331    1.1200    0.0000 H       1  UNL1        0.0658
     38 H           9.4651   -1.1200    0.0000 H       1  UNL1        0.0683
     39 H          10.0021    0.1900    0.0000 H       1  UNL1        0.1084
     40 H           6.2565    1.1077    0.0000 H       1  UNL1        0.0584
     41 H           6.6550    0.4174    0.0000 H       1  UNL1        0.0584
     42 H           9.1360   -2.3100    0.0000 H       1  UNL1        0.2101
     43 H          10.8681   -0.6900    0.0000 H       1  UNL1        0.2102
     44 H           6.3301    2.3100    0.0000 H       1  UNL1        0.2095
     45 H          11.7341    2.1900    0.0000 H       1  UNL1        0.0654
     46 H           8.9282    2.1900    0.0000 H       1  UNL1        0.0654
     47 H           5.4641   -2.1900    0.0000 H       1  UNL1        0.0689
     48 H          11.7341    3.8100    0.0000 H       1  UNL1        0.0623
     49 H           8.9282    3.8100    0.0000 H       1  UNL1        0.0623
     50 H           6.5380   -3.8100    0.0000 H       1  UNL1        0.0626
     51 H          10.8681    4.6900    0.0000 H       1  UNL1        0.0804
     52 H           4.2690   -2.8800    0.0000 H       1  UNL1        0.0661
     53 H           5.6720   -5.3100    0.0000 H       1  UNL1        0.0625
     54 H          11.1972    6.1200    0.0000 H       1  UNL1        0.2115
     55 H           4.2690   -6.1200    0.0000 H       1  UNL1        0.0655
     56 H           2.0000   -3.8100    0.0000 H       1  UNL1        0.2923
     57 H           2.5369   -6.1200    0.0000 H       1  UNL1        0.2923
@<TRIPOS>BOND
     1     1    14    1
     2     1    16    1
     3    12     2    1
     4     2    19    1
     5    13     3    1
     6     3    42    1
     7    16     4    1
     8     4    18    1
     9    15     5    1
    10     5    43    1
    11     6    17    1
    12     6    44    1
    13     7    19    2
    14     8    27    1
    15     8    54    1
    16     9    32    1
    17     9    56    1
    18    10    34    1
    19    10    57    1
    20    11    31    3
    21    12    13    1
    22    12    14    1
    23    12    35    1
    24    13    15    1
    25    13    36    1
    26    14    17    1
    27    14    37    1
    28    15    16    1
    29    15    38    1
    30    16    39    1
    31    17    40    1
    32    17    41    1
    33    18    20   ar
    34    18    21   ar
    35    19    22    1
    36    20    23   ar
    37    20    45    1
    38    21    24   ar
    39    21    46    1
    40    22    26    2
    41    22    47    1
    42    23    25   ar
    43    23    48    1
    44    24    25   ar
    45    24    49    1
    46    25    27    1
    47    26    28    1
    48    26    50    1
    49    27    31    1
    50    27    51    1
    51    28    29   ar
    52    28    30   ar
    53    29    32   ar
    54    29    52    1
    55    30    33   ar
    56    30    53    1
    57    32    34   ar
    58    33    34   ar
    59    33    55    1
