@<TRIPOS>MOLECULE
IMPHY016344
 41 40 0 0 0
SMALL
GASTEIGER

@<TRIPOS>ATOM
      1 C           6.3301    0.2500    0.0000 C.3     1  UNL1       -0.0436
      2 C           7.1962    0.7500    0.0000 C.3     1  UNL1       -0.0479
      3 C           5.4641    0.7500    0.0000 C.3     1  UNL1       -0.0504
      4 C           8.0622    0.2500    0.0000 C.3     1  UNL1       -0.0439
      5 C           4.5981    0.2500    0.0000 C.3     1  UNL1       -0.0526
      6 C           3.7320    0.7500    0.0000 C.3     1  UNL1       -0.0507
      7 C           6.3301   -0.7500    0.0000 C.3     1  UNL1       -0.0624
      8 C           8.9282    0.7500    0.0000 C.3     1  UNL1       -0.0533
      9 C           2.8660    0.2500    0.0000 C.3     1  UNL1       -0.0467
     10 C           8.0622   -0.7500    0.0000 C.3     1  UNL1       -0.0624
     11 C           9.7942    0.2500    0.0000 C.3     1  UNL1       -0.0650
     12 C           2.0000    0.7500    0.0000 C.3     1  UNL1       -0.0627
     13 C           2.8660   -0.7500    0.0000 C.3     1  UNL1       -0.0627
     14 H           6.8671   -0.0600    0.0000 H       1  UNL1        0.0298
     15 H           7.5947    1.2250    0.0000 H       1  UNL1        0.0270
     16 H           6.7976    1.2250    0.0000 H       1  UNL1        0.0270
     17 H           5.8626    1.2250    0.0000 H       1  UNL1        0.0268
     18 H           5.0656    1.2250    0.0000 H       1  UNL1        0.0268
     19 H           7.5252   -0.0600    0.0000 H       1  UNL1        0.0298
     20 H           4.1996   -0.2249    0.0000 H       1  UNL1        0.0265
     21 H           4.9966   -0.2249    0.0000 H       1  UNL1        0.0265
     22 H           4.1306    1.2250    0.0000 H       1  UNL1        0.0268
     23 H           3.3335    1.2250    0.0000 H       1  UNL1        0.0268
     24 H           5.7101   -0.7500    0.0000 H       1  UNL1        0.0232
     25 H           6.3301   -1.3700    0.0000 H       1  UNL1        0.0232
     26 H           6.9501   -0.7500    0.0000 H       1  UNL1        0.0232
     27 H           9.3267    1.2250    0.0000 H       1  UNL1        0.0265
     28 H           8.5297    1.2250    0.0000 H       1  UNL1        0.0265
     29 H           2.8660    0.8700    0.0000 H       1  UNL1        0.0295
     30 H           7.4422   -0.7500    0.0000 H       1  UNL1        0.0232
     31 H           8.0622   -1.3700    0.0000 H       1  UNL1        0.0232
     32 H           8.6822   -0.7500    0.0000 H       1  UNL1        0.0232
     33 H           9.4842   -0.2869    0.0000 H       1  UNL1        0.0230
     34 H          10.3312   -0.0600    0.0000 H       1  UNL1        0.0230
     35 H          10.1042    0.7869    0.0000 H       1  UNL1        0.0230
     36 H           2.3100    1.2869    0.0000 H       1  UNL1        0.0232
     37 H           1.4631    1.0600    0.0000 H       1  UNL1        0.0232
     38 H           1.6900    0.2131    0.0000 H       1  UNL1        0.0232
     39 H           2.2460   -0.7500    0.0000 H       1  UNL1        0.0232
     40 H           2.8660   -1.3700    0.0000 H       1  UNL1        0.0232
     41 H           3.4860   -0.7500    0.0000 H       1  UNL1        0.0232
@<TRIPOS>BOND
     1     1     2    1
     2     1     3    1
     3     1     7    1
     4     1    14    1
     5     2     4    1
     6     2    15    1
     7     2    16    1
     8     3     5    1
     9     3    17    1
    10     3    18    1
    11     4     8    1
    12     4    10    1
    13     4    19    1
    14     5     6    1
    15     5    20    1
    16     5    21    1
    17     6     9    1
    18     6    22    1
    19     6    23    1
    20     7    24    1
    21     7    25    1
    22     7    26    1
    23     8    11    1
    24     8    27    1
    25     8    28    1
    26     9    12    1
    27     9    13    1
    28     9    29    1
    29    10    30    1
    30    10    31    1
    31    10    32    1
    32    11    33    1
    33    11    34    1
    34    11    35    1
    35    12    36    1
    36    12    37    1
    37    12    38    1
    38    13    39    1
    39    13    40    1
    40    13    41    1
