@<TRIPOS>MOLECULE
IMPHY015445
 36 37 0 0 0
SMALL
GASTEIGER

@<TRIPOS>ATOM
      1 O           5.1229    1.1334    0.0000 O.2     1  UNL1       -0.2920
      2 C           4.8122   -1.4266    0.0000 C.3     1  UNL1       -0.0022
      3 C           3.8660   -1.1218    0.0000 C.ar    1  UNL1       -0.0306
      4 C           5.3958   -0.6218    0.0000 C.3     1  UNL1        0.0196
      5 C           3.8660   -0.1218    0.0000 C.ar    1  UNL1        0.0248
      6 C           3.0000    1.3782    0.0000 C.3     1  UNL1       -0.0120
      7 C           3.0000    0.3782    0.0000 C.ar    1  UNL1       -0.0312
      8 C           4.8122    0.1829    0.0000 C.2     1  UNL1        0.1645
      9 C           5.6223   -2.0130    0.0000 C.3     1  UNL1       -0.0554
     10 C           4.5049   -2.3782    0.0000 C.3     1  UNL1       -0.0554
     11 C           3.0000   -1.6218    0.0000 C.ar    1  UNL1       -0.0574
     12 C           2.1340   -0.1218    0.0000 C.ar    1  UNL1       -0.0574
     13 C           3.0000    2.3782    0.0000 C.3     1  UNL1       -0.0560
     14 C           2.0000    1.3782    0.0000 C.3     1  UNL1       -0.0560
     15 C           4.0000    1.3782    0.0000 C.3     1  UNL1       -0.0560
     16 C           2.1340   -1.1218    0.0000 C.ar    1  UNL1       -0.0612
     17 H           5.8567   -1.0366    0.0000 H       1  UNL1        0.0354
     18 H           5.8567   -0.2071    0.0000 H       1  UNL1        0.0354
     19 H           5.2587   -2.5152    0.0000 H       1  UNL1        0.0238
     20 H           6.1245   -2.3765    0.0000 H       1  UNL1        0.0238
     21 H           5.9858   -1.5107    0.0000 H       1  UNL1        0.0238
     22 H           3.9149   -2.1876    0.0000 H       1  UNL1        0.0238
     23 H           4.3143   -2.9682    0.0000 H       1  UNL1        0.0238
     24 H           5.0949   -2.5687    0.0000 H       1  UNL1        0.0238
     25 H           3.0000   -2.2418    0.0000 H       1  UNL1        0.0621
     26 H           1.5970    0.1882    0.0000 H       1  UNL1        0.0621
     27 H           3.6200    2.3782    0.0000 H       1  UNL1        0.0238
     28 H           3.0000    2.9982    0.0000 H       1  UNL1        0.0238
     29 H           2.3800    2.3782    0.0000 H       1  UNL1        0.0238
     30 H           2.0000    1.9982    0.0000 H       1  UNL1        0.0238
     31 H           1.3800    1.3782    0.0000 H       1  UNL1        0.0238
     32 H           2.0000    0.7582    0.0000 H       1  UNL1        0.0238
     33 H           4.0000    0.7582    0.0000 H       1  UNL1        0.0238
     34 H           4.6200    1.3782    0.0000 H       1  UNL1        0.0238
     35 H           4.0000    1.9982    0.0000 H       1  UNL1        0.0238
     36 H           1.5970   -1.4318    0.0000 H       1  UNL1        0.0618
@<TRIPOS>BOND
     1     1     8    2
     2     2     3    1
     3     2     4    1
     4     2     9    1
     5     2    10    1
     6     3     5   ar
     7     3    11   ar
     8     4     8    1
     9     4    17    1
    10     4    18    1
    11     5     7   ar
    12     5     8    1
    13     6     7    1
    14     6    13    1
    15     6    14    1
    16     6    15    1
    17     7    12   ar
    18     9    19    1
    19     9    20    1
    20     9    21    1
    21    10    22    1
    22    10    23    1
    23    10    24    1
    24    11    16   ar
    25    11    25    1
    26    12    16   ar
    27    12    26    1
    28    13    27    1
    29    13    28    1
    30    13    29    1
    31    14    30    1
    32    14    31    1
    33    14    32    1
    34    15    33    1
    35    15    34    1
    36    15    35    1
    37    16    36    1
