@<TRIPOS>MOLECULE
IMPHY006770
 76 81 0 0 0
SMALL
GASTEIGER

@<TRIPOS>ATOM
      1 O           8.9864   -3.7657    0.0000 O.3     1  UNL1       -0.4608
      2 O           6.3744   -0.2373    0.0000 O.3     1  UNL1       -0.4549
      3 O           8.1403    0.8005    0.0000 O.3     1  UNL1       -0.3758
      4 O           5.5138   -0.7342    0.0000 O.2     1  UNL1       -0.2929
      5 O           3.7320   -1.7446    0.0000 O.3     1  UNL1       -0.4538
      6 O          10.7079   -3.7985    0.0000 O.2     1  UNL1       -0.2508
      7 O           7.2230    1.2726    0.0000 O.2     1  UNL1       -0.2449
      8 O           2.8602   -3.2413    0.0000 O.2     1  UNL1       -0.2511
      9 O           4.3873    3.7118    0.0000 O.3     1  UNL1       -0.4526
     10 O           3.0029    2.8910    0.0000 O.3     1  UNL1       -0.4526
     11 C           8.1282   -2.2688    0.0000 C.3     1  UNL1        0.0158
     12 C           7.2622   -1.7688    0.0000 C.3     1  UNL1        0.0201
     13 C           6.3961   -2.2688    0.0000 C.3     1  UNL1        0.0397
     14 C           9.0382   -1.7619    0.0000 C.3     1  UNL1       -0.0168
     15 C           8.1282   -3.2688    0.0000 C.3     1  UNL1        0.1093
     16 C           6.3961   -3.2688    0.0000 C.3     1  UNL1       -0.0249
     17 C           7.2461   -0.7273    0.0000 C.3     1  UNL1        0.1339
     18 C           7.2622   -3.7688    0.0000 C.3     1  UNL1       -0.0114
     19 C           9.0462   -0.7203    0.0000 C.3     1  UNL1       -0.0101
     20 C           8.1441   -0.1995    0.0000 C.3     1  UNL1        0.0983
     21 C           8.1282   -1.2688    0.0000 C.3     1  UNL1       -0.0555
     22 C           9.8775   -2.2901    0.0000 C.3     1  UNL1        0.0487
     23 C           5.5022   -3.8034    0.0000 C.3     1  UNL1       -0.0454
     24 C           5.5022   -1.7341    0.0000 C.2     1  UNL1        0.1800
     25 C           6.3961   -1.2688    0.0000 C.3     1  UNL1       -0.0520
     26 C           4.5961   -2.2479    0.0000 C.3     1  UNL1        0.1610
     27 C           4.5961   -3.2896    0.0000 C.3     1  UNL1       -0.0083
     28 C           9.9142   -0.2237    0.0000 C.3     1  UNL1       -0.0597
     29 C           9.8519   -3.2815    0.0000 C.2     1  UNL1        0.3076
     30 C           6.3628    0.7626    0.0000 C.2     1  UNL1        0.3397
     31 C           9.0044    1.3038    0.0000 C.3     1  UNL1        0.0370
     32 C           2.8641   -2.2413    0.0000 C.2     1  UNL1        0.3046
     33 C           5.4910    1.2526    0.0000 C.ar    1  UNL1        0.0627
     34 C           2.0000   -1.7379    0.0000 C.3     1  UNL1        0.0333
     35 C           5.4795    2.2525    0.0000 C.ar    1  UNL1       -0.0022
     36 C           4.6309    0.7426    0.0000 C.ar    1  UNL1       -0.0441
     37 C           4.6077    2.7425    0.0000 C.ar    1  UNL1        0.1670
     38 C           3.7591    1.2326    0.0000 C.ar    1  UNL1       -0.0154
     39 C           3.7475    2.2325    0.0000 C.ar    1  UNL1        0.1663
     40 C           3.3974    3.8034    0.0000 C.3     1  UNL1        0.2332
     41 H           6.5228   -1.3494    0.0000 H       1  UNL1        0.0353
     42 H           9.7839   -1.3539    0.0000 H       1  UNL1        0.0316
     43 H           8.1277   -4.1188    0.0000 H       1  UNL1        0.0739
     44 H           6.4027   -4.1187    0.0000 H       1  UNL1        0.0311
     45 H           7.2379    0.1227    0.0000 H       1  UNL1        0.0763
     46 H           6.8636   -4.2437    0.0000 H       1  UNL1        0.0304
     47 H           7.6607   -4.2437    0.0000 H       1  UNL1        0.0304
     48 H           9.5814   -1.0334    0.0000 H       1  UNL1        0.0327
     49 H           7.6054    0.1074    0.0000 H       1  UNL1        0.0636
     50 H           8.7482   -1.2688    0.0000 H       1  UNL1        0.0236
     51 H           8.1282   -0.6488    0.0000 H       1  UNL1        0.0236
     52 H           7.5082   -1.2688    0.0000 H       1  UNL1        0.0236
     53 H          10.4846   -2.4160    0.0000 H       1  UNL1        0.0380
     54 H          10.1093   -1.7151    0.0000 H       1  UNL1        0.0380
     55 H           5.1086   -4.2824    0.0000 H       1  UNL1        0.0269
     56 H           5.9068   -4.2732    0.0000 H       1  UNL1        0.0269
     57 H           7.0161   -1.2688    0.0000 H       1  UNL1        0.0239
     58 H           6.3961   -0.6488    0.0000 H       1  UNL1        0.0239
     59 H           5.7761   -1.2688    0.0000 H       1  UNL1        0.0239
     60 H           4.5997   -1.6280    0.0000 H       1  UNL1        0.0815
     61 H           3.9853   -3.1835    0.0000 H       1  UNL1        0.0305
     62 H           4.3871   -3.8733    0.0000 H       1  UNL1        0.0305
     63 H          10.2221   -0.7618    0.0000 H       1  UNL1        0.0233
     64 H          10.4523    0.0843    0.0000 H       1  UNL1        0.0233
     65 H           9.6062    0.3145    0.0000 H       1  UNL1        0.0233
     66 H           9.3164    0.7681    0.0000 H       1  UNL1        0.0524
     67 H           9.5401    1.6159    0.0000 H       1  UNL1        0.0524
     68 H           8.6923    1.8396    0.0000 H       1  UNL1        0.0524
     69 H           2.3121   -1.2022    0.0000 H       1  UNL1        0.0342
     70 H           1.4643   -1.4259    0.0000 H       1  UNL1        0.0342
     71 H           1.6879   -2.2737    0.0000 H       1  UNL1        0.0342
     72 H           6.0128    2.5687    0.0000 H       1  UNL1        0.0663
     73 H           4.6380    0.1226    0.0000 H       1  UNL1        0.0627
     74 H           3.2258    0.9164    0.0000 H       1  UNL1        0.0655
     75 H           3.5192    4.4114    0.0000 H       1  UNL1        0.1166
     76 H           2.8057    3.9884    0.0000 H       1  UNL1        0.1166
@<TRIPOS>BOND
     1     1    15    1
     2     1    29    1
     3     2    17    1
     4     2    30    1
     5    20     3    1
     6     3    31    1
     7     4    24    2
     8    26     5    1
     9     5    32    1
    10     6    29    2
    11     7    30    2
    12     8    32    2
    13     9    37    1
    14     9    40    1
    15    10    39    1
    16    10    40    1
    17    11    12    1
    18    11    14    1
    19    11    15    1
    20    11    21    1
    21    12    13    1
    22    12    17    1
    23    12    41    1
    24    13    16    1
    25    13    24    1
    26    13    25    1
    27    14    19    1
    28    14    22    1
    29    14    42    1
    30    15    18    1
    31    15    43    1
    32    16    18    1
    33    16    23    1
    34    16    44    1
    35    17    20    1
    36    17    45    1
    37    18    46    1
    38    18    47    1
    39    19    20    1
    40    19    28    1
    41    19    48    1
    42    20    49    1
    43    21    50    1
    44    21    51    1
    45    21    52    1
    46    22    29    1
    47    22    53    1
    48    22    54    1
    49    23    27    1
    50    23    55    1
    51    23    56    1
    52    24    26    1
    53    25    57    1
    54    25    58    1
    55    25    59    1
    56    26    27    1
    57    26    60    1
    58    27    61    1
    59    27    62    1
    60    28    63    1
    61    28    64    1
    62    28    65    1
    63    30    33    1
    64    31    66    1
    65    31    67    1
    66    31    68    1
    67    32    34    1
    68    33    35   ar
    69    33    36   ar
    70    34    69    1
    71    34    70    1
    72    34    71    1
    73    35    37   ar
    74    35    72    1
    75    36    38   ar
    76    36    73    1
    77    37    39   ar
    78    38    39   ar
    79    38    74    1
    80    40    75    1
    81    40    76    1
