@<TRIPOS>MOLECULE
IMPHY001599
 35 36 0 0 0
SMALL
GASTEIGER

@<TRIPOS>ATOM
      1 O           3.7320   -2.6123    0.0000 O.3     1  UNL1       -0.3851
      2 O           6.3580    0.8530    0.0000 O.2     1  UNL1       -0.4214
      3 O           2.8660    0.8877    0.0000 O.3     1  UNL1       -0.4944
      4 O           8.1282    0.8635    0.0000 O.2     1  UNL1       -0.2452
      5 C           3.7320   -1.6123    0.0000 C.3     1  UNL1        0.0789
      6 C           4.5981    0.8877    0.0000 C.ar    1  UNL1        0.0594
      7 C           3.7320   -0.6123    0.0000 C.2     1  UNL1       -0.0526
      8 C           5.4641    1.3877    0.0000 C.ar    1  UNL1        0.1496
      9 C           4.5981   -0.1123    0.0000 C.2     1  UNL1       -0.0488
     10 C           2.7320   -1.6123    0.0000 C.3     1  UNL1       -0.0327
     11 C           4.7320   -1.6123    0.0000 C.3     1  UNL1       -0.0327
     12 C           5.4641    2.3877    0.0000 C.ar    1  UNL1        0.0184
     13 C           3.7320    1.3877    0.0000 C.ar    1  UNL1        0.1308
     14 C           4.5981    2.8877    0.0000 C.ar    1  UNL1       -0.0476
     15 C           3.7320    2.3877    0.0000 C.ar    1  UNL1       -0.0186
     16 C           6.3580    2.9223    0.0000 C.ar    1  UNL1       -0.0443
     17 C           7.2641    2.4085    0.0000 C.ar    1  UNL1        0.0236
     18 C           7.2641    1.3668    0.0000 C.ar    1  UNL1        0.3372
     19 C           2.0000    1.3877    0.0000 C.3     1  UNL1        0.0788
     20 H           3.1951   -0.3023    0.0000 H       1  UNL1        0.0600
     21 H           5.1350   -0.4223    0.0000 H       1  UNL1        0.0624
     22 H           4.7320   -2.2323    0.0000 H       1  UNL1        0.0260
     23 H           5.3520   -1.6123    0.0000 H       1  UNL1        0.0260
     24 H           2.7320   -0.9923    0.0000 H       1  UNL1        0.0260
     25 H           2.1120   -1.6123    0.0000 H       1  UNL1        0.0260
     26 H           2.7320   -2.2323    0.0000 H       1  UNL1        0.0260
     27 H           4.7320   -0.9923    0.0000 H       1  UNL1        0.0260
     28 H           4.5981    3.5077    0.0000 H       1  UNL1        0.0626
     29 H           3.1951    2.6977    0.0000 H       1  UNL1        0.0654
     30 H           6.3509    3.5423    0.0000 H       1  UNL1        0.0627
     31 H           3.1951   -2.9223    0.0000 H       1  UNL1        0.2106
     32 H           7.7998    2.7205    0.0000 H       1  UNL1        0.0689
     33 H           2.3100    1.9246    0.0000 H       1  UNL1        0.0660
     34 H           1.4631    1.6977    0.0000 H       1  UNL1        0.0660
     35 H           1.6900    0.8507    0.0000 H       1  UNL1        0.0660
@<TRIPOS>BOND
     1     1     5    1
     2     1    31    1
     3     2     8   ar
     4     2    18   ar
     5     3    13    1
     6     3    19    1
     7     4    18    2
     8     5     7    1
     9     5    10    1
    10     5    11    1
    11     6     8   ar
    12     6     9    1
    13     6    13   ar
    14     7     9    2
    15     7    20    1
    16     8    12   ar
    17     9    21    1
    18    10    24    1
    19    10    25    1
    20    10    26    1
    21    11    22    1
    22    11    23    1
    23    11    27    1
    24    12    14   ar
    25    12    16   ar
    26    13    15   ar
    27    14    15   ar
    28    14    28    1
    29    15    29    1
    30    16    17   ar
    31    16    30    1
    32    17    18   ar
    33    17    32    1
    34    19    33    1
    35    19    34    1
    36    19    35    1
