@<TRIPOS>MOLECULE
IMPHY007575
 43 45 0 0 0
SMALL
GASTEIGER

@<TRIPOS>ATOM
      1 O           6.3580   -1.0176    0.0000 O.2     1  UNL1       -0.4544
      2 O           4.5981    2.0171    0.0000 O.3     1  UNL1       -0.4905
      3 O           2.8660    1.0171    0.0000 O.3     1  UNL1       -0.4885
      4 O           2.8660   -0.9829    0.0000 O.3     1  UNL1       -0.4912
      5 O           6.3465    2.0517    0.0000 O.2     1  UNL1       -0.2869
      6 O          10.7205   -2.5171    0.0000 O.3     1  UNL1       -0.4951
      7 C           5.4641    0.5171    0.0000 C.ar    1  UNL1        0.1093
      8 C           5.4641   -0.4829    0.0000 C.ar    1  UNL1        0.1465
      9 C           4.5981    1.0171    0.0000 C.ar    1  UNL1        0.1795
     10 C           7.2641   -0.5037    0.0000 C.ar    1  UNL1        0.1392
     11 C           3.7320    0.5171    0.0000 C.ar    1  UNL1        0.2045
     12 C           6.3580    1.0517    0.0000 C.ar    1  UNL1        0.1967
     13 C           4.5981   -0.9829    0.0000 C.ar    1  UNL1        0.0270
     14 C           3.7320   -0.4829    0.0000 C.ar    1  UNL1        0.1687
     15 C           7.2641    0.5379    0.0000 C.ar    1  UNL1        0.0288
     16 C           8.1282   -1.0071    0.0000 C.ar    1  UNL1        0.0176
     17 C           8.9962   -0.5104    0.0000 C.ar    1  UNL1       -0.0476
     18 C           8.1244   -2.0071    0.0000 C.ar    1  UNL1       -0.0476
     19 C           9.8602   -1.0138    0.0000 C.ar    1  UNL1       -0.0193
     20 C           8.9884   -2.5104    0.0000 C.ar    1  UNL1       -0.0193
     21 C           9.8564   -2.0137    0.0000 C.ar    1  UNL1        0.1201
     22 C           3.7320    2.5171    0.0000 C.3     1  UNL1        0.0790
     23 C           2.0000    0.5171    0.0000 C.3     1  UNL1        0.0791
     24 C           2.8660   -1.9829    0.0000 C.3     1  UNL1        0.0790
     25 C          11.5884   -2.0204    0.0000 C.3     1  UNL1        0.0788
     26 H           4.5981   -1.6029    0.0000 H       1  UNL1        0.0692
     27 H           7.7998    0.8500    0.0000 H       1  UNL1        0.0693
     28 H           8.9985    0.1096    0.0000 H       1  UNL1        0.0626
     29 H           7.5862   -2.3150    0.0000 H       1  UNL1        0.0626
     30 H          10.3984   -0.7058    0.0000 H       1  UNL1        0.0654
     31 H           8.9860   -3.1304    0.0000 H       1  UNL1        0.0654
     32 H           4.0420    3.0540    0.0000 H       1  UNL1        0.0660
     33 H           3.1951    2.8271    0.0000 H       1  UNL1        0.0660
     34 H           3.4220    1.9801    0.0000 H       1  UNL1        0.0660
     35 H           1.6900    1.0540    0.0000 H       1  UNL1        0.0660
     36 H           1.4631    0.2071    0.0000 H       1  UNL1        0.0660
     37 H           2.3100   -0.0199    0.0000 H       1  UNL1        0.0660
     38 H           2.2460   -1.9829    0.0000 H       1  UNL1        0.0660
     39 H           2.8660   -2.6029    0.0000 H       1  UNL1        0.0660
     40 H           3.4860   -1.9829    0.0000 H       1  UNL1        0.0660
     41 H          11.8964   -2.5586    0.0000 H       1  UNL1        0.0660
     42 H          12.1266   -1.7125    0.0000 H       1  UNL1        0.0660
     43 H          11.2805   -1.4823    0.0000 H       1  UNL1        0.0660
@<TRIPOS>BOND
     1     1     8   ar
     2     1    10   ar
     3     2     9    1
     4     2    22    1
     5     3    11    1
     6     3    23    1
     7     4    14    1
     8     4    24    1
     9     5    12    2
    10     6    21    1
    11     6    25    1
    12     7     8   ar
    13     7     9   ar
    14     7    12   ar
    15     8    13   ar
    16     9    11   ar
    17    10    15   ar
    18    10    16    1
    19    11    14   ar
    20    12    15   ar
    21    13    14   ar
    22    13    26    1
    23    15    27    1
    24    16    17   ar
    25    16    18   ar
    26    17    19   ar
    27    17    28    1
    28    18    20   ar
    29    18    29    1
    30    19    21   ar
    31    19    30    1
    32    20    21   ar
    33    20    31    1
    34    22    32    1
    35    22    33    1
    36    22    34    1
    37    23    35    1
    38    23    36    1
    39    23    37    1
    40    24    38    1
    41    24    39    1
    42    24    40    1
    43    25    41    1
    44    25    42    1
    45    25    43    1
