@<TRIPOS>MOLECULE
IMPHY005843
 34 34 0 0 0
SMALL
GASTEIGER

@<TRIPOS>ATOM
      1 O           7.6751   -1.8758    0.0000 O.2     1  UNL1       -0.2971
      2 O           2.4608   -2.2359    0.0000 O.3     1  UNL1       -0.4806
      3 O           3.6197   -3.5230    0.0000 O.2     1  UNL1       -0.2510
      4 O           5.0490    2.9030    0.0000 O.3     1  UNL1       -0.3947
      5 C           5.1060   -2.1848    0.0000 C.3     1  UNL1       -0.0208
      6 C           5.9150   -1.5970    0.0000 C.3     1  UNL1        0.0242
      7 C           5.4150   -3.1358    0.0000 C.3     1  UNL1       -0.0424
      8 C           6.4150   -3.1358    0.0000 C.3     1  UNL1        0.0064
      9 C           6.7240   -2.1848    0.0000 C.2     1  UNL1        0.1370
     10 C           5.9150   -0.5970    0.0000 C.3     1  UNL1       -0.0250
     11 C           4.1550   -1.8758    0.0000 C.3     1  UNL1        0.0483
     12 C           6.7810   -0.0970    0.0000 C.2     1  UNL1       -0.0872
     13 C           3.4118   -2.5449    0.0000 C.2     1  UNL1        0.3050
     14 C           6.7810    0.9030    0.0000 C.2     1  UNL1       -0.0858
     15 C           5.9150    1.4030    0.0000 C.3     1  UNL1       -0.0115
     16 C           5.9150    2.4030    0.0000 C.3     1  UNL1        0.0476
     17 H           5.0090   -1.5724    0.0000 H       1  UNL1        0.0313
     18 H           6.4675   -1.3155    0.0000 H       1  UNL1        0.0383
     19 H           4.8086   -3.2647    0.0000 H       1  UNL1        0.0272
     20 H           5.4798   -3.7524    0.0000 H       1  UNL1        0.0272
     21 H           6.3502   -3.7524    0.0000 H       1  UNL1        0.0342
     22 H           7.0215   -3.2647    0.0000 H       1  UNL1        0.0342
     23 H           5.7030   -0.0144    0.0000 H       1  UNL1        0.0314
     24 H           5.3044   -0.7046    0.0000 H       1  UNL1        0.0314
     25 H           4.4460   -1.3283    0.0000 H       1  UNL1        0.0380
     26 H           3.6664   -1.4940    0.0000 H       1  UNL1        0.0380
     27 H           7.3180   -0.4070    0.0000 H       1  UNL1        0.0569
     28 H           7.3180    1.2130    0.0000 H       1  UNL1        0.0570
     29 H           5.3044    1.5107    0.0000 H       1  UNL1        0.0329
     30 H           5.7030    0.8204    0.0000 H       1  UNL1        0.0329
     31 H           2.0000   -2.6507    0.0000 H       1  UNL1        0.2951
     32 H           6.5256    2.2954    0.0000 H       1  UNL1        0.0560
     33 H           6.1271    2.9856    0.0000 H       1  UNL1        0.0560
     34 H           5.0490    3.5230    0.0000 H       1  UNL1        0.2094
@<TRIPOS>BOND
     1     1     9    2
     2     2    13    1
     3     2    31    1
     4     3    13    2
     5     4    16    1
     6     4    34    1
     7     5     6    1
     8     5     7    1
     9     5    11    1
    10     5    17    1
    11     6     9    1
    12     6    10    1
    13     6    18    1
    14     7     8    1
    15     7    19    1
    16     7    20    1
    17     8     9    1
    18     8    21    1
    19     8    22    1
    20    10    12    1
    21    10    23    1
    22    10    24    1
    23    11    13    1
    24    11    25    1
    25    11    26    1
    26    12    14    2
    27    12    27    1
    28    14    15    1
    29    14    28    1
    30    15    16    1
    31    15    29    1
    32    15    30    1
    33    16    32    1
    34    16    33    1
