@<TRIPOS>MOLECULE
IMPHY000696
 61 64 0 0 0
SMALL
GASTEIGER

@<TRIPOS>ATOM
      1 O           7.7925   -2.5159    0.0000 O.3     1  UNL1       -0.4608
      2 O           5.1804    1.0125    0.0000 O.3     1  UNL1       -0.3878
      3 O           6.9464    2.0503    0.0000 O.3     1  UNL1       -0.4586
      4 O           4.3198    0.5156    0.0000 O.2     1  UNL1       -0.2941
      5 O           2.5381   -0.4948    0.0000 O.3     1  UNL1       -0.3843
      6 O           9.5140   -2.5487    0.0000 O.2     1  UNL1       -0.2508
      7 O           8.6784    2.0569    0.0000 O.2     1  UNL1       -0.2512
      8 C           6.9343   -1.0190    0.0000 C.3     1  UNL1        0.0148
      9 C           6.0682   -0.5190    0.0000 C.3     1  UNL1        0.0100
     10 C           5.2022   -1.0190    0.0000 C.3     1  UNL1        0.0378
     11 C           5.2022   -2.0190    0.0000 C.3     1  UNL1       -0.0225
     12 C           7.8443   -0.5121    0.0000 C.3     1  UNL1       -0.0158
     13 C           6.9343   -2.0190    0.0000 C.3     1  UNL1        0.1093
     14 C           6.0522    0.5225    0.0000 C.3     1  UNL1        0.0966
     15 C           6.0682   -2.5190    0.0000 C.3     1  UNL1       -0.0112
     16 C           7.8523    0.5295    0.0000 C.3     1  UNL1       -0.0002
     17 C           6.9502    1.0503    0.0000 C.3     1  UNL1        0.1319
     18 C           4.3083   -2.5537    0.0000 C.3     1  UNL1       -0.0373
     19 C           6.9343   -0.0190    0.0000 C.3     1  UNL1       -0.0555
     20 C           4.3083   -0.4843    0.0000 C.2     1  UNL1        0.1680
     21 C           8.6836   -1.0404    0.0000 C.3     1  UNL1        0.0487
     22 C           5.2022   -0.0190    0.0000 C.3     1  UNL1       -0.0521
     23 C           3.4022   -2.0398    0.0000 C.3     1  UNL1       -0.0170
     24 C           3.4022   -0.9982    0.0000 C.3     1  UNL1        0.1138
     25 C           8.7202    1.0261    0.0000 C.3     1  UNL1       -0.0587
     26 C           8.6580   -2.0318    0.0000 C.2     1  UNL1        0.3076
     27 C           4.3198   -3.5536    0.0000 C.3     1  UNL1       -0.0620
     28 C           7.8105    2.5536    0.0000 C.2     1  UNL1        0.3043
     29 C           7.8066    3.5536    0.0000 C.3     1  UNL1        0.0332
     30 H           5.3289   -0.0997    0.0000 H       1  UNL1        0.0343
     31 H           5.2088   -2.8690    0.0000 H       1  UNL1        0.0314
     32 H           8.5900   -0.1041    0.0000 H       1  UNL1        0.0316
     33 H           6.9337   -2.8690    0.0000 H       1  UNL1        0.0739
     34 H           5.5195    0.2053    0.0000 H       1  UNL1        0.0633
     35 H           5.6697   -2.9939    0.0000 H       1  UNL1        0.0304
     36 H           6.4668   -2.9939    0.0000 H       1  UNL1        0.0304
     37 H           8.3874    0.2164    0.0000 H       1  UNL1        0.0338
     38 H           6.4115    1.3572    0.0000 H       1  UNL1        0.0763
     39 H           3.7744   -2.8688    0.0000 H       1  UNL1        0.0302
     40 H           7.5543   -0.0190    0.0000 H       1  UNL1        0.0236
     41 H           6.9343    0.6010    0.0000 H       1  UNL1        0.0236
     42 H           6.3143   -0.0190    0.0000 H       1  UNL1        0.0236
     43 H           9.2907   -1.1663    0.0000 H       1  UNL1        0.0380
     44 H           8.9154   -0.4653    0.0000 H       1  UNL1        0.0380
     45 H           5.8222   -0.0190    0.0000 H       1  UNL1        0.0239
     46 H           5.2022    0.6010    0.0000 H       1  UNL1        0.0239
     47 H           4.5822   -0.0190    0.0000 H       1  UNL1        0.0239
     48 H           2.7914   -1.9337    0.0000 H       1  UNL1        0.0297
     49 H           3.1932   -2.6235    0.0000 H       1  UNL1        0.0297
     50 H           2.8647   -1.3071    0.0000 H       1  UNL1        0.0673
     51 H           9.0282    0.4880    0.0000 H       1  UNL1        0.0234
     52 H           9.2584    1.3340    0.0000 H       1  UNL1        0.0234
     53 H           8.4123    1.5642    0.0000 H       1  UNL1        0.0234
     54 H           3.6999   -3.5608    0.0000 H       1  UNL1        0.0233
     55 H           4.3270   -4.1736    0.0000 H       1  UNL1        0.0233
     56 H           4.9398   -3.5464    0.0000 H       1  UNL1        0.0233
     57 H           5.1733    1.6324    0.0000 H       1  UNL1        0.2099
     58 H           2.0000   -0.8028    0.0000 H       1  UNL1        0.2104
     59 H           8.4266    3.5560    0.0000 H       1  UNL1        0.0342
     60 H           7.8042    4.1736    0.0000 H       1  UNL1        0.0342
     61 H           7.1866    3.5512    0.0000 H       1  UNL1        0.0342
@<TRIPOS>BOND
     1     1    13    1
     2     1    26    1
     3    14     2    1
     4     2    57    1
     5    17     3    1
     6     3    28    1
     7     4    20    2
     8    24     5    1
     9     5    58    1
    10     6    26    2
    11     7    28    2
    12     8     9    1
    13     8    12    1
    14     8    13    1
    15     8    19    1
    16     9    10    1
    17     9    14    1
    18     9    30    1
    19    10    11    1
    20    10    20    1
    21    10    22    1
    22    11    15    1
    23    11    18    1
    24    11    31    1
    25    12    16    1
    26    12    21    1
    27    12    32    1
    28    13    15    1
    29    13    33    1
    30    14    17    1
    31    14    34    1
    32    15    35    1
    33    15    36    1
    34    16    17    1
    35    16    25    1
    36    16    37    1
    37    17    38    1
    38    18    23    1
    39    18    27    1
    40    18    39    1
    41    19    40    1
    42    19    41    1
    43    19    42    1
    44    20    24    1
    45    21    26    1
    46    21    43    1
    47    21    44    1
    48    22    45    1
    49    22    46    1
    50    22    47    1
    51    23    24    1
    52    23    48    1
    53    23    49    1
    54    24    50    1
    55    25    51    1
    56    25    52    1
    57    25    53    1
    58    27    54    1
    59    27    55    1
    60    27    56    1
    61    28    29    1
    62    29    59    1
    63    29    60    1
    64    29    61    1
