@<TRIPOS>MOLECULE
IMPHY007259
 20 22 0 0 0
SMALL
GASTEIGER

@<TRIPOS>ATOM
      1 O           2.5836   -1.5894    0.0000 O.2     1  UNL1       -0.4629
      2 N           4.3798    1.2569    0.0000 N.ar    1  UNL1       -0.2543
      3 C           3.5298   -0.2846    0.0000 C.ar    1  UNL1        0.0460
      4 C           4.3958    0.2154    0.0000 C.ar    1  UNL1        0.0817
      5 C           5.2619   -0.2846    0.0000 C.ar    1  UNL1        0.0012
      6 C           3.5298   -1.2846    0.0000 C.ar    1  UNL1        0.1369
      7 C           5.2619   -1.2846    0.0000 C.ar    1  UNL1       -0.0491
      8 C           4.3958   -1.7846    0.0000 C.ar    1  UNL1       -0.0181
      9 C           2.5836    0.0201    0.0000 C.ar    1  UNL1       -0.0141
     10 C           6.1719    0.2222    0.0000 C.ar    1  UNL1       -0.0511
     11 C           2.0000   -0.7846    0.0000 C.ar    1  UNL1        0.0932
     12 C           6.1799    1.2638    0.0000 C.ar    1  UNL1       -0.0430
     13 C           5.2778    1.7846    0.0000 C.ar    1  UNL1        0.0283
     14 H           5.7988   -1.5946    0.0000 H       1  UNL1        0.0625
     15 H           4.3958   -2.4046    0.0000 H       1  UNL1        0.0655
     16 H           2.3910    0.6094    0.0000 H       1  UNL1        0.0656
     17 H           6.7052   -0.0940    0.0000 H       1  UNL1        0.0625
     18 H           1.3800   -0.7846    0.0000 H       1  UNL1        0.1030
     19 H           6.7180    1.5717    0.0000 H       1  UNL1        0.0633
     20 H           5.2754    2.4046    0.0000 H       1  UNL1        0.0830
@<TRIPOS>BOND
     1     1     6   ar
     2     1    11   ar
     3     2     4   ar
     4     2    13   ar
     5     3     4   ar
     6     3     6   ar
     7     3     9   ar
     8     4     5   ar
     9     5     7   ar
    10     5    10   ar
    11     6     8   ar
    12     7     8   ar
    13     7    14    1
    14     8    15    1
    15     9    11   ar
    16     9    16    1
    17    10    12   ar
    18    10    17    1
    19    11    18    1
    20    12    13   ar
    21    12    19    1
    22    13    20    1
