@<TRIPOS>MOLECULE
IMPHY014668
 161 169 0 0 0
SMALL
GASTEIGER

@<TRIPOS>ATOM
      1 O           6.3349    6.9764    0.0000 O.3     1  UNL1       -0.3449
      2 O          12.9229    3.5258    0.0000 O.3     1  UNL1       -0.3906
      3 O          13.9350    1.3462    0.0000 O.3     1  UNL1       -0.4306
      4 O          13.5690    2.7122    0.0000 O.2     1  UNL1       -0.2500
      5 O           5.0211    5.8478    0.0000 O.3     1  UNL1       -0.3315
      6 O          14.8011    2.8462    0.0000 O.3     1  UNL1       -0.3360
      7 O           5.0317    8.4935    0.0000 O.3     1  UNL1       -0.3841
      8 O           3.0663    8.1234    0.0000 O.3     1  UNL1       -0.3864
      9 O          15.6671    0.3462    0.0000 O.3     1  UNL1       -0.4492
     10 O           2.4040    6.2363    0.0000 O.3     1  UNL1       -0.3860
     11 O          17.3991    1.3462    0.0000 O.3     1  UNL1       -0.3853
     12 O          17.3991    3.3462    0.0000 O.3     1  UNL1       -0.3868
     13 O           2.7245    4.5342    0.0000 O.3     1  UNL1       -0.4788
     14 O           4.3588    3.9607    0.0000 O.2     1  UNL1       -0.2480
     15 O          13.9350    0.3462    0.0000 O.2     1  UNL1       -0.2456
     16 O          15.6671   -4.6538    0.0000 O.3     1  UNL1       -0.4914
     17 O          13.9350   -5.6538    0.0000 O.3     1  UNL1       -0.4572
     18 O          12.2030   -5.6538    0.0000 O.3     1  UNL1       -0.3313
     19 O          13.9350   -7.6538    0.0000 O.3     1  UNL1       -0.3829
     20 O          12.2030   -8.6538    0.0000 O.3     1  UNL1       -0.3864
     21 O          10.4709   -7.6538    0.0000 O.3     1  UNL1       -0.3865
     22 O           9.6049   -6.1538    0.0000 O.3     1  UNL1       -0.3924
     23 C          10.0811    3.9981    0.0000 C.3     1  UNL1       -0.0193
     24 C           9.0977    3.8169    0.0000 C.3     1  UNL1       -0.0257
     25 C           8.4098    4.5991    0.0000 C.3     1  UNL1       -0.0250
     26 C          10.7298    3.2370    0.0000 C.3     1  UNL1       -0.0028
     27 C           8.7510    5.5833    0.0000 C.3     1  UNL1       -0.0278
     28 C          10.4449    4.9742    0.0000 C.3     1  UNL1       -0.0463
     29 C           9.7754    5.7721    0.0000 C.3     1  UNL1       -0.0486
     30 C           8.0536    6.4145    0.0000 C.3     1  UNL1       -0.0052
     31 C          10.3950    2.2948    0.0000 C.2     1  UNL1       -0.0627
     32 C          11.0584    1.4917    0.0000 C.3     1  UNL1       -0.0007
     33 C           8.7629    2.8747    0.0000 C.3     1  UNL1       -0.0306
     34 C           7.3477    4.3778    0.0000 C.3     1  UNL1       -0.0447
     35 C          11.7511    3.4416    0.0000 C.3     1  UNL1       -0.0162
     36 C          12.0842    1.6726    0.0000 C.3     1  UNL1        0.1000
     37 C          12.4329    2.6541    0.0000 C.3     1  UNL1        0.0723
     38 C          10.9433    4.5048    0.0000 C.3     1  UNL1       -0.0585
     39 C           6.9865    6.2178    0.0000 C.3     1  UNL1        0.0672
     40 C           9.4116    2.1136    0.0000 C.2     1  UNL1       -0.0836
     41 C           8.0824    3.6544    0.0000 C.3     1  UNL1       -0.0590
     42 C           6.6312    5.1927    0.0000 C.3     1  UNL1       -0.0255
     43 C          11.3667    4.0080    0.0000 C.3     1  UNL1       -0.0552
     44 C          10.6716    0.4779    0.0000 C.3     1  UNL1       -0.0402
     45 C          12.7944    0.8522    0.0000 C.3     1  UNL1       -0.0338
     46 C          11.3627   -0.3586    0.0000 C.3     1  UNL1       -0.0343
     47 C           7.8761    7.3986    0.0000 C.3     1  UNL1       -0.0572
     48 C           8.8171    7.0602    0.0000 C.3     1  UNL1       -0.0572
     49 C          12.4311   -0.1702    0.0000 C.3     1  UNL1       -0.0467
     50 C          13.0690    1.8462    0.0000 C.2     1  UNL1        0.3187
     51 C          10.5942   -0.9984    0.0000 C.3     1  UNL1       -0.0598
     52 C          11.5326   -1.3441    0.0000 C.3     1  UNL1       -0.0598
     53 C           5.3522    6.7914    0.0000 C.3     1  UNL1        0.1888
     54 C           4.7006    7.5499    0.0000 C.3     1  UNL1        0.1341
     55 C          14.8011    1.8462    0.0000 C.3     1  UNL1        0.2447
     56 C           3.7179    7.3649    0.0000 C.3     1  UNL1        0.1145
     57 C           4.0383    5.6627    0.0000 C.3     1  UNL1        0.1859
     58 C           3.3867    6.4213    0.0000 C.3     1  UNL1        0.1201
     59 C          15.6671    1.3462    0.0000 C.3     1  UNL1        0.1933
     60 C          16.5331    1.8462    0.0000 C.3     1  UNL1        0.1259
     61 C          15.6671    3.3462    0.0000 C.3     1  UNL1        0.0803
     62 C          16.5331    2.8462    0.0000 C.3     1  UNL1        0.1081
     63 C           3.7072    4.7192    0.0000 C.2     1  UNL1        0.3367
     64 C          14.8011   -0.1538    0.0000 C.2     1  UNL1        0.3325
     65 C          14.8011   -1.1538    0.0000 C.2     1  UNL1        0.0231
     66 C          13.9350   -1.6538    0.0000 C.2     1  UNL1       -0.0477
     67 C          13.9350   -2.6538    0.0000 C.ar    1  UNL1       -0.0211
     68 C          14.8011   -3.1538    0.0000 C.ar    1  UNL1       -0.0091
     69 C          13.0690   -3.1538    0.0000 C.ar    1  UNL1       -0.0509
     70 C          14.8011   -4.1538    0.0000 C.ar    1  UNL1        0.1622
     71 C          13.0690   -4.1538    0.0000 C.ar    1  UNL1       -0.0156
     72 C          13.9350   -4.6538    0.0000 C.ar    1  UNL1        0.1654
     73 C          13.0690   -6.1538    0.0000 C.3     1  UNL1        0.2310
     74 C          16.5331   -4.1538    0.0000 C.3     1  UNL1        0.0790
     75 C          13.0690   -7.1538    0.0000 C.3     1  UNL1        0.1454
     76 C          12.2030   -7.6538    0.0000 C.3     1  UNL1        0.1152
     77 C          11.3370   -6.1538    0.0000 C.3     1  UNL1        0.1140
     78 C          11.3370   -7.1538    0.0000 C.3     1  UNL1        0.1120
     79 C          10.4709   -5.6538    0.0000 C.3     1  UNL1        0.0731
     80 H           9.4998    3.3450    0.0000 H       1  UNL1        0.0315
     81 H           8.9608    6.1667    0.0000 H       1  UNL1        0.0312
     82 H          10.9802    4.6614    0.0000 H       1  UNL1        0.0271
     83 H          10.8447    5.4481    0.0000 H       1  UNL1        0.0271
     84 H          10.3115    6.0835    0.0000 H       1  UNL1        0.0268
     85 H           9.5603    6.3536    0.0000 H       1  UNL1        0.0268
     86 H          10.2197    1.3538    0.0000 H       1  UNL1        0.0357
     87 H           8.2236    3.1805    0.0000 H       1  UNL1        0.0310
     88 H           8.3681    2.3967    0.0000 H       1  UNL1        0.0310
     89 H           6.8189    4.0542    0.0000 H       1  UNL1        0.0271
     90 H           7.5761    3.8015    0.0000 H       1  UNL1        0.0271
     91 H          12.2824    3.7612    0.0000 H       1  UNL1        0.0299
     92 H          11.5272    4.0197    0.0000 H       1  UNL1        0.0299
     93 H          12.9973    2.3975    0.0000 H       1  UNL1        0.0605
     94 H          11.2574    3.9702    0.0000 H       1  UNL1        0.0235
     95 H          11.4778    4.8189    0.0000 H       1  UNL1        0.0235
     96 H          10.6291    5.0393    0.0000 H       1  UNL1        0.0235
     97 H           7.1930    6.8024    0.0000 H       1  UNL1        0.0602
     98 H           9.2040    1.5294    0.0000 H       1  UNL1        0.0572
     99 H           7.4966    3.8574    0.0000 H       1  UNL1        0.0235
    100 H           7.8794    3.0685    0.0000 H       1  UNL1        0.0235
    101 H           8.6682    3.4513    0.0000 H       1  UNL1        0.0235
    102 H           6.0888    5.4930    0.0000 H       1  UNL1        0.0290
    103 H           6.2425    4.7096    0.0000 H       1  UNL1        0.0290
    104 H          11.8447    3.6132    0.0000 H       1  UNL1        0.0238
    105 H          11.7615    4.4860    0.0000 H       1  UNL1        0.0238
    106 H          10.8886    4.4029    0.0000 H       1  UNL1        0.0238
    107 H          10.1387    0.7948    0.0000 H       1  UNL1        0.0276
    108 H          10.2683    0.0071    0.0000 H       1  UNL1        0.0276
    109 H          13.3344    0.5478    0.0000 H       1  UNL1        0.0277
    110 H          13.1868    1.3323    0.0000 H       1  UNL1        0.0277
    111 H           8.4863    7.5086    0.0000 H       1  UNL1        0.0236
    112 H           7.7661    8.0087    0.0000 H       1  UNL1        0.0236
    113 H           7.2660    7.2886    0.0000 H       1  UNL1        0.0236
    114 H           9.2175    6.5868    0.0000 H       1  UNL1        0.0236
    115 H           9.2905    7.4606    0.0000 H       1  UNL1        0.0236
    116 H           8.4168    7.5336    0.0000 H       1  UNL1        0.0236
    117 H          12.4328   -0.7901    0.0000 H       1  UNL1        0.0271
    118 H          13.0423   -0.2747    0.0000 H       1  UNL1        0.0271
    119 H          12.6067    4.0591    0.0000 H       1  UNL1        0.2098
    120 H          10.1975   -0.5219    0.0000 H       1  UNL1        0.0235
    121 H          10.1177   -1.3951    0.0000 H       1  UNL1        0.0235
    122 H          10.9908   -1.4749    0.0000 H       1  UNL1        0.0235
    123 H          10.9216   -1.4494    0.0000 H       1  UNL1        0.0235
    124 H          11.6379   -1.9550    0.0000 H       1  UNL1        0.0235
    125 H          12.1435   -1.2387    0.0000 H       1  UNL1        0.0235
    126 H           5.5575    7.3764    0.0000 H       1  UNL1        0.0938
    127 H           4.2966    8.0202    0.0000 H       1  UNL1        0.0671
    128 H          14.8011    1.2262    0.0000 H       1  UNL1        0.1097
    129 H           3.9232    7.9499    0.0000 H       1  UNL1        0.0648
    130 H           4.4423    5.1924    0.0000 H       1  UNL1        0.0741
    131 H           3.1814    5.8363    0.0000 H       1  UNL1        0.0652
    132 H          16.2040    1.0362    0.0000 H       1  UNL1        0.0825
    133 H           4.6277    8.9638    0.0000 H       1  UNL1        0.2101
    134 H          17.0701    2.1562    0.0000 H       1  UNL1        0.0659
    135 H          16.0656    3.8211    0.0000 H       1  UNL1        0.0588
    136 H          15.2686    3.8211    0.0000 H       1  UNL1        0.0588
    137 H          16.5331    3.4662    0.0000 H       1  UNL1        0.0643
    138 H           3.2716    8.7085    0.0000 H       1  UNL1        0.2100
    139 H           2.0000    6.7066    0.0000 H       1  UNL1        0.2100
    140 H          17.9361    1.6562    0.0000 H       1  UNL1        0.2101
    141 H          17.3991    3.9662    0.0000 H       1  UNL1        0.2100
    142 H           2.5192    3.9492    0.0000 H       1  UNL1        0.2951
    143 H          15.3380   -1.4638    0.0000 H       1  UNL1        0.0689
    144 H          13.3981   -1.3438    0.0000 H       1  UNL1        0.0626
    145 H          15.3380   -2.8438    0.0000 H       1  UNL1        0.0661
    146 H          12.5321   -2.8438    0.0000 H       1  UNL1        0.0625
    147 H          12.5321   -4.4638    0.0000 H       1  UNL1        0.0655
    148 H          13.0690   -5.5338    0.0000 H       1  UNL1        0.1084
    149 H          16.8431   -4.6907    0.0000 H       1  UNL1        0.0660
    150 H          17.0701   -3.8438    0.0000 H       1  UNL1        0.0660
    151 H          16.2231   -3.6169    0.0000 H       1  UNL1        0.0660
    152 H          13.6059   -6.8438    0.0000 H       1  UNL1        0.0683
    153 H          12.7399   -7.9638    0.0000 H       1  UNL1        0.0648
    154 H          11.3370   -5.5338    0.0000 H       1  UNL1        0.0647
    155 H          10.8000   -6.8438    0.0000 H       1  UNL1        0.0647
    156 H          10.8695   -5.1789    0.0000 H       1  UNL1        0.0584
    157 H          10.0724   -5.1789    0.0000 H       1  UNL1        0.0584
    158 H          14.4720   -7.3438    0.0000 H       1  UNL1        0.2102
    159 H          12.7399   -8.9638    0.0000 H       1  UNL1        0.2100
    160 H          10.4709   -8.2738    0.0000 H       1  UNL1        0.2100
    161 H           9.0680   -5.8438    0.0000 H       1  UNL1        0.2095
@<TRIPOS>BOND
     1    39     1    1
     2    53     1    1
     3    37     2    1
     4     2   119    1
     5     3    50    1
     6    55     3    1
     7     4    50    2
     8     5    53    1
     9     5    57    1
    10     6    55    1
    11     6    61    1
    12    54     7    1
    13     7   133    1
    14    56     8    1
    15     8   138    1
    16    59     9    1
    17     9    64    1
    18    58    10    1
    19    10   139    1
    20    60    11    1
    21    11   140    1
    22    62    12    1
    23    12   141    1
    24    13    63    1
    25    13   142    1
    26    14    63    2
    27    15    64    2
    28    16    70    1
    29    16    74    1
    30    17    72    1
    31    73    17    1
    32    18    73    1
    33    18    77    1
    34    75    19    1
    35    19   158    1
    36    76    20    1
    37    20   159    1
    38    78    21    1
    39    21   160    1
    40    22    79    1
    41    22   161    1
    42    23    24    1
    43    23    26    1
    44    23    28    1
    45    23    38    1
    46    24    25    1
    47    24    33    1
    48    24    80    1
    49    25    27    1
    50    25    34    1
    51    25    41    1
    52    26    31    1
    53    26    35    1
    54    26    43    1
    55    27    29    1
    56    27    30    1
    57    27    81    1
    58    28    29    1
    59    28    82    1
    60    28    83    1
    61    29    84    1
    62    29    85    1
    63    30    39    1
    64    30    47    1
    65    30    48    1
    66    31    32    1
    67    31    40    2
    68    32    36    1
    69    32    44    1
    70    32    86    1
    71    33    40    1
    72    33    87    1
    73    33    88    1
    74    34    42    1
    75    34    89    1
    76    34    90    1
    77    35    37    1
    78    35    91    1
    79    35    92    1
    80    36    37    1
    81    36    45    1
    82    36    50    1
    83    37    93    1
    84    38    94    1
    85    38    95    1
    86    38    96    1
    87    39    42    1
    88    39    97    1
    89    40    98    1
    90    41    99    1
    91    41   100    1
    92    41   101    1
    93    42   102    1
    94    42   103    1
    95    43   104    1
    96    43   105    1
    97    43   106    1
    98    44    46    1
    99    44   107    1
   100    44   108    1
   101    45    49    1
   102    45   109    1
   103    45   110    1
   104    46    49    1
   105    46    51    1
   106    46    52    1
   107    47   111    1
   108    47   112    1
   109    47   113    1
   110    48   114    1
   111    48   115    1
   112    48   116    1
   113    49   117    1
   114    49   118    1
   115    51   120    1
   116    51   121    1
   117    51   122    1
   118    52   123    1
   119    52   124    1
   120    52   125    1
   121    53    54    1
   122    53   126    1
   123    54    56    1
   124    54   127    1
   125    55    59    1
   126    55   128    1
   127    56    58    1
   128    56   129    1
   129    57    58    1
   130    57    63    1
   131    57   130    1
   132    58   131    1
   133    59    60    1
   134    59   132    1
   135    60    62    1
   136    60   134    1
   137    61    62    1
   138    61   135    1
   139    61   136    1
   140    62   137    1
   141    64    65    1
   142    65    66    2
   143    65   143    1
   144    66    67    1
   145    66   144    1
   146    67    68   ar
   147    67    69   ar
   148    68    70   ar
   149    68   145    1
   150    69    71   ar
   151    69   146    1
   152    70    72   ar
   153    71    72   ar
   154    71   147    1
   155    73    75    1
   156    73   148    1
   157    74   149    1
   158    74   150    1
   159    74   151    1
   160    75    76    1
   161    75   152    1
   162    76    78    1
   163    76   153    1
   164    77    78    1
   165    77    79    1
   166    77   154    1
   167    78   155    1
   168    79   156    1
   169    79   157    1
