@<TRIPOS>MOLECULE
IMPHY014609
 42 44 0 0 0
SMALL
GASTEIGER

@<TRIPOS>ATOM
      1 O           6.3580   -1.0209    0.0000 O.3     1  UNL1       -0.4792
      2 O           4.5981    2.0137    0.0000 O.3     1  UNL1       -0.4905
      3 O           4.5981   -1.9863    0.0000 O.3     1  UNL1       -0.4884
      4 O           6.3465    2.0483    0.0000 O.2     1  UNL1       -0.2917
      5 O           2.8660   -0.9863    0.0000 O.3     1  UNL1       -0.4883
      6 O           2.8660    1.0137    0.0000 O.3     1  UNL1       -0.5008
      7 C           7.2641   -0.5071    0.0000 C.3     1  UNL1        0.1323
      8 C           7.2641    0.5346    0.0000 C.3     1  UNL1        0.0520
      9 C           5.4641    0.5137    0.0000 C.ar    1  UNL1        0.1082
     10 C           5.4641   -0.4863    0.0000 C.ar    1  UNL1        0.1807
     11 C           6.3580    1.0484    0.0000 C.2     1  UNL1        0.1743
     12 C           8.1282   -1.0104    0.0000 C.ar    1  UNL1       -0.0069
     13 C           4.5981    1.0137    0.0000 C.ar    1  UNL1        0.1792
     14 C           4.5981   -0.9863    0.0000 C.ar    1  UNL1        0.2082
     15 C           3.7320   -0.4863    0.0000 C.ar    1  UNL1        0.2108
     16 C           3.7320    0.5137    0.0000 C.ar    1  UNL1        0.2057
     17 C           8.1244   -2.0104    0.0000 C.ar    1  UNL1       -0.0551
     18 C           8.9962   -0.5138    0.0000 C.ar    1  UNL1       -0.0551
     19 C           8.9884   -2.5137    0.0000 C.ar    1  UNL1       -0.0614
     20 C           9.8602   -1.0171    0.0000 C.ar    1  UNL1       -0.0614
     21 C           9.8564   -2.0171    0.0000 C.ar    1  UNL1       -0.0617
     22 C           3.7320    2.5137    0.0000 C.3     1  UNL1        0.0790
     23 C           3.7320   -2.4863    0.0000 C.3     1  UNL1        0.0791
     24 C           2.0000   -0.4863    0.0000 C.3     1  UNL1        0.0791
     25 H           7.2605   -1.1271    0.0000 H       1  UNL1        0.0789
     26 H           7.8750    0.4285    0.0000 H       1  UNL1        0.0385
     27 H           7.4732    1.1182    0.0000 H       1  UNL1        0.0385
     28 H           7.5862   -2.3183    0.0000 H       1  UNL1        0.0621
     29 H           8.9985    0.1062    0.0000 H       1  UNL1        0.0621
     30 H           8.9860   -3.1337    0.0000 H       1  UNL1        0.0618
     31 H          10.3984   -0.7092    0.0000 H       1  UNL1        0.0618
     32 H          10.3921   -2.3292    0.0000 H       1  UNL1        0.0618
     33 H           2.3291    0.7037    0.0000 H       1  UNL1        0.2924
     34 H           4.0420    3.0507    0.0000 H       1  UNL1        0.0660
     35 H           3.1951    2.8237    0.0000 H       1  UNL1        0.0660
     36 H           3.4220    1.9768    0.0000 H       1  UNL1        0.0660
     37 H           3.4220   -1.9493    0.0000 H       1  UNL1        0.0660
     38 H           3.1951   -2.7963    0.0000 H       1  UNL1        0.0660
     39 H           4.0420   -3.0232    0.0000 H       1  UNL1        0.0660
     40 H           2.3100    0.0507    0.0000 H       1  UNL1        0.0660
     41 H           1.4631   -0.1763    0.0000 H       1  UNL1        0.0660
     42 H           1.6900   -1.0232    0.0000 H       1  UNL1        0.0660
@<TRIPOS>BOND
     1     1     7    1
     2     1    10    1
     3     2    13    1
     4     2    22    1
     5     3    14    1
     6     3    23    1
     7     4    11    2
     8     5    15    1
     9     5    24    1
    10     6    16    1
    11     6    33    1
    12     7     8    1
    13     7    12    1
    14     7    25    1
    15     8    11    1
    16     8    26    1
    17     8    27    1
    18     9    10   ar
    19     9    11    1
    20     9    13   ar
    21    10    14   ar
    22    12    17   ar
    23    12    18   ar
    24    13    16   ar
    25    14    15   ar
    26    15    16   ar
    27    17    19   ar
    28    17    28    1
    29    18    20   ar
    30    18    29    1
    31    19    21   ar
    32    19    30    1
    33    20    21   ar
    34    20    31    1
    35    21    32    1
    36    22    34    1
    37    22    35    1
    38    22    36    1
    39    23    37    1
    40    23    38    1
    41    23    39    1
    42    24    40    1
    43    24    41    1
    44    24    42    1
