@<TRIPOS>MOLECULE
IMPHY002097
 52 54 0 0 0
SMALL
GASTEIGER

@<TRIPOS>ATOM
      1 O           6.8671   -1.0950    0.0000 O.3     1  UNL1       -0.3094
      2 O           6.0010    0.4050    0.0000 O.2     1  UNL1       -0.4701
      3 O           9.5331    0.3842    0.0000 O.3     1  UNL1       -0.4611
      4 O           5.1350   -1.0950    0.0000 O.3     1  UNL1       -0.3404
      5 O           6.8671   -3.0950    0.0000 O.3     1  UNL1       -0.3841
      6 O           5.1350   -4.0950    0.0000 O.3     1  UNL1       -0.3864
      7 O           3.4030   -3.0950    0.0000 O.3     1  UNL1       -0.3865
      8 O          10.3972    1.9292    0.0000 O.2     1  UNL1       -0.2508
      9 O           2.5369   -1.5950    0.0000 O.3     1  UNL1       -0.3924
     10 O           6.0010    3.4050    0.0000 O.3     1  UNL1       -0.4646
     11 O           7.7331    3.4050    0.0000 O.2     1  UNL1       -0.2452
     12 C           7.7331    0.4050    0.0000 C.3     1  UNL1        0.0659
     13 C           7.7331    1.4050    0.0000 C.3     1  UNL1        0.0158
     14 C           6.8671   -0.0950    0.0000 C.3     1  UNL1        0.2102
     15 C           8.6270   -0.1297    0.0000 C.3     1  UNL1        0.1093
     16 C           8.6270    1.9397    0.0000 C.3     1  UNL1        0.0526
     17 C           6.0010   -1.5950    0.0000 C.3     1  UNL1        0.1918
     18 C           6.0010   -2.5950    0.0000 C.3     1  UNL1        0.1342
     19 C           6.8671    1.9050    0.0000 C.2     1  UNL1        0.0749
     20 C           5.1350   -3.0950    0.0000 C.3     1  UNL1        0.1141
     21 C           4.2690   -2.5950    0.0000 C.3     1  UNL1        0.1119
     22 C           4.2690   -1.5950    0.0000 C.3     1  UNL1        0.1130
     23 C           8.6155   -1.1296    0.0000 C.3     1  UNL1       -0.0272
     24 C           9.5331    1.4258    0.0000 C.2     1  UNL1        0.3079
     25 C           6.0010    1.4050    0.0000 C.2     1  UNL1        0.0981
     26 C           3.4030   -1.0950    0.0000 C.3     1  UNL1        0.0730
     27 C           6.8671    2.9050    0.0000 C.2     1  UNL1        0.3381
     28 C           6.0010    4.4050    0.0000 C.3     1  UNL1        0.0820
     29 H           7.7265   -0.4450    0.0000 H       1  UNL1        0.0403
     30 H           7.7265    2.2550    0.0000 H       1  UNL1        0.0363
     31 H           6.3301   -0.4050    0.0000 H       1  UNL1        0.1060
     32 H           9.1610   -0.4448    0.0000 H       1  UNL1        0.0736
     33 H           9.0207    2.4187    0.0000 H       1  UNL1        0.0384
     34 H           8.2224    2.4094    0.0000 H       1  UNL1        0.0384
     35 H           6.0010   -0.9750    0.0000 H       1  UNL1        0.0939
     36 H           6.0010   -3.2150    0.0000 H       1  UNL1        0.0671
     37 H           4.5981   -3.4050    0.0000 H       1  UNL1        0.0648
     38 H           3.7320   -2.2850    0.0000 H       1  UNL1        0.0647
     39 H           4.2690   -0.9750    0.0000 H       1  UNL1        0.0647
     40 H           7.9955   -1.1224    0.0000 H       1  UNL1        0.0265
     41 H           8.6083   -1.7496    0.0000 H       1  UNL1        0.0265
     42 H           9.2354   -1.1368    0.0000 H       1  UNL1        0.0265
     43 H           5.4641    1.7150    0.0000 H       1  UNL1        0.1029
     44 H           3.8015   -0.6201    0.0000 H       1  UNL1        0.0584
     45 H           3.0044   -0.6201    0.0000 H       1  UNL1        0.0584
     46 H           6.8671   -3.7150    0.0000 H       1  UNL1        0.2101
     47 H           4.5981   -4.4050    0.0000 H       1  UNL1        0.2100
     48 H           3.4030   -3.7150    0.0000 H       1  UNL1        0.2100
     49 H           2.0000   -1.2850    0.0000 H       1  UNL1        0.2095
     50 H           6.6210    4.4050    0.0000 H       1  UNL1        0.0661
     51 H           6.0010    5.0250    0.0000 H       1  UNL1        0.0661
     52 H           5.3810    4.4050    0.0000 H       1  UNL1        0.0661
@<TRIPOS>BOND
     1    14     1    1
     2    17     1    1
     3     2    14    1
     4     2    25    1
     5     3    15    1
     6     3    24    1
     7     4    17    1
     8     4    22    1
     9    18     5    1
    10     5    46    1
    11    20     6    1
    12     6    47    1
    13    21     7    1
    14     7    48    1
    15     8    24    2
    16     9    26    1
    17     9    49    1
    18    10    27    1
    19    10    28    1
    20    11    27    2
    21    12    13    1
    22    12    14    1
    23    12    15    1
    24    12    29    1
    25    13    16    1
    26    13    19    1
    27    13    30    1
    28    14    31    1
    29    15    23    1
    30    15    32    1
    31    16    24    1
    32    16    33    1
    33    16    34    1
    34    17    18    1
    35    17    35    1
    36    18    20    1
    37    18    36    1
    38    19    25    2
    39    19    27    1
    40    20    21    1
    41    20    37    1
    42    21    22    1
    43    21    38    1
    44    22    26    1
    45    22    39    1
    46    23    40    1
    47    23    41    1
    48    23    42    1
    49    25    43    1
    50    26    44    1
    51    26    45    1
    52    28    50    1
    53    28    51    1
    54    28    52    1
