@<TRIPOS>MOLECULE
IMPHY017540
 35 35 0 0 0
SMALL
GASTEIGER

@<TRIPOS>ATOM
      1 O           8.0622   -1.5000    0.0000 O.2     1  UNL1       -0.2927
      2 O           2.8660    1.5000    0.0000 O.2     1  UNL1       -0.2977
      3 C           6.3301    0.5000    0.0000 C.3     1  UNL1       -0.0214
      4 C           5.4641    0.0000    0.0000 C.3     1  UNL1       -0.0138
      5 C           7.1962   -0.0000    0.0000 C.3     1  UNL1        0.0156
      6 C           4.5981    0.5000    0.0000 C.3     1  UNL1       -0.0393
      7 C           5.4641   -1.0000    0.0000 C.2     1  UNL1       -0.0657
      8 C           6.8301    1.3660    0.0000 C.3     1  UNL1       -0.0589
      9 C           5.8301    1.3660    0.0000 C.3     1  UNL1       -0.0589
     10 C           7.1962   -1.0000    0.0000 C.2     1  UNL1        0.1566
     11 C           6.3301   -1.5000    0.0000 C.2     1  UNL1       -0.0199
     12 C           3.7320    0.0000    0.0000 C.3     1  UNL1        0.0061
     13 C           4.5981   -1.5000    0.0000 C.3     1  UNL1       -0.0431
     14 C           2.8660    0.5000    0.0000 C.2     1  UNL1        0.1303
     15 C           2.0000    0.0000    0.0000 C.3     1  UNL1       -0.0061
     16 H           5.4641    0.6200    0.0000 H       1  UNL1        0.0351
     17 H           7.8067   -0.1077    0.0000 H       1  UNL1        0.0350
     18 H           7.4082    0.5826    0.0000 H       1  UNL1        0.0350
     19 H           4.9966    0.9749    0.0000 H       1  UNL1        0.0275
     20 H           4.1996    0.9749    0.0000 H       1  UNL1        0.0275
     21 H           7.3671    1.0560    0.0000 H       1  UNL1        0.0235
     22 H           7.1401    1.9030    0.0000 H       1  UNL1        0.0235
     23 H           6.2932    1.6760    0.0000 H       1  UNL1        0.0235
     24 H           6.3671    1.6760    0.0000 H       1  UNL1        0.0235
     25 H           5.5201    1.9030    0.0000 H       1  UNL1        0.0235
     26 H           5.2932    1.0560    0.0000 H       1  UNL1        0.0235
     27 H           6.3301   -2.1200    0.0000 H       1  UNL1        0.0652
     28 H           3.3335   -0.4749    0.0000 H       1  UNL1        0.0342
     29 H           4.1306   -0.4749    0.0000 H       1  UNL1        0.0342
     30 H           4.2881   -0.9631    0.0000 H       1  UNL1        0.0275
     31 H           4.0611   -1.8100    0.0000 H       1  UNL1        0.0275
     32 H           4.9081   -2.0369    0.0000 H       1  UNL1        0.0275
     33 H           1.6900    0.5369    0.0000 H       1  UNL1        0.0306
     34 H           1.4631   -0.3100    0.0000 H       1  UNL1        0.0306
     35 H           2.3100   -0.5369    0.0000 H       1  UNL1        0.0306
@<TRIPOS>BOND
     1     1    10    2
     2     2    14    2
     3     3     4    1
     4     3     5    1
     5     3     8    1
     6     3     9    1
     7     4     6    1
     8     4     7    1
     9     4    16    1
    10     5    10    1
    11     5    17    1
    12     5    18    1
    13     6    12    1
    14     6    19    1
    15     6    20    1
    16     7    11    2
    17     7    13    1
    18     8    21    1
    19     8    22    1
    20     8    23    1
    21     9    24    1
    22     9    25    1
    23     9    26    1
    24    10    11    1
    25    11    27    1
    26    12    14    1
    27    12    28    1
    28    12    29    1
    29    13    30    1
    30    13    31    1
    31    13    32    1
    32    14    15    1
    33    15    33    1
    34    15    34    1
    35    15    35    1
