@<TRIPOS>MOLECULE
IMPHY010241
 137 145 0 0 0
SMALL
GASTEIGER

@<TRIPOS>ATOM
      1 O          10.8882    5.5403    0.0000 O.3     1  UNL1       -0.3448
      2 O           9.1158    6.4351    0.0000 O.3     1  UNL1       -0.3480
      3 O           9.4651   -2.7038    0.0000 O.3     1  UNL1       -0.3454
      4 O           7.7331   -2.7038    0.0000 O.3     1  UNL1       -0.3405
      5 O           9.4651   -4.7038    0.0000 O.3     1  UNL1       -0.3841
      6 O           7.7331   -5.7038    0.0000 O.3     1  UNL1       -0.3400
      7 O           6.0010   -4.7038    0.0000 O.3     1  UNL1       -0.3401
      8 O           6.0010   -1.7038    0.0000 O.3     1  UNL1       -0.3924
      9 O           9.4651   -5.7038    0.0000 O.3     1  UNL1       -0.3405
     10 O           5.1350   -3.2038    0.0000 O.3     1  UNL1       -0.3405
     11 O           7.7331   -7.7038    0.0000 O.3     1  UNL1       -0.3841
     12 O           4.2690   -5.7038    0.0000 O.3     1  UNL1       -0.3841
     13 O           9.4651   -8.7038    0.0000 O.3     1  UNL1       -0.3864
     14 O           2.5369   -4.7038    0.0000 O.3     1  UNL1       -0.3864
     15 O          11.1972   -7.7038    0.0000 O.3     1  UNL1       -0.3865
     16 O           2.5369   -2.7038    0.0000 O.3     1  UNL1       -0.3865
     17 O          11.1972   -4.7038    0.0000 O.3     1  UNL1       -0.3924
     18 O           3.4030   -1.2038    0.0000 O.3     1  UNL1       -0.3924
     19 C           9.4944    3.4931    0.0000 C.3     1  UNL1       -0.0233
     20 C          10.3623    2.9965    0.0000 C.3     1  UNL1       -0.0298
     21 C          10.3662    1.9965    0.0000 C.3     1  UNL1       -0.0343
     22 C           9.6999    4.4657    0.0000 C.3     1  UNL1       -0.0015
     23 C           9.5021    1.4931    0.0000 C.3     1  UNL1       -0.0323
     24 C          10.6882    4.5726    0.0000 C.3     1  UNL1        0.0660
     25 C           9.4901    0.4516    0.0000 C.3     1  UNL1       -0.0260
     26 C          11.0968    3.6664    0.0000 C.3     1  UNL1       -0.0226
     27 C           8.6303    2.9898    0.0000 C.3     1  UNL1       -0.0467
     28 C           8.6342    1.9898    0.0000 C.3     1  UNL1       -0.0489
     29 C           9.2976    5.3683    0.0000 C.3     1  UNL1        0.0160
     30 C          10.3901   -0.0727    0.0000 C.3     1  UNL1       -0.0330
     31 C          11.2781    1.4931    0.0000 C.3     1  UNL1       -0.0494
     32 C          10.0305    6.0311    0.0000 C.3     1  UNL1        0.1732
     33 C          11.2902    0.4516    0.0000 C.3     1  UNL1       -0.0494
     34 C           8.6264    3.9898    0.0000 C.3     1  UNL1       -0.0590
     35 C           8.5402   -0.0727    0.0000 C.3     1  UNL1       -0.0448
     36 C          10.4027   -1.1576    0.0000 C.3     1  UNL1       -0.0232
     37 C           8.6260    0.9549    0.0000 C.3     1  UNL1       -0.0590
     38 C           8.5276   -1.1576    0.0000 C.3     1  UNL1       -0.0260
     39 C           8.3192    5.5750    0.0000 C.3     1  UNL1       -0.0572
     40 C           9.4651   -1.7038    0.0000 C.3     1  UNL1        0.0621
     41 C          10.8378    6.6213    0.0000 C.3     1  UNL1        0.0020
     42 C          10.7303    7.6155    0.0000 C.3     1  UNL1       -0.0435
     43 C           9.0083    7.4293    0.0000 C.3     1  UNL1        0.0535
     44 C           9.8155    8.0195    0.0000 C.3     1  UNL1       -0.0201
     45 C           9.7080    9.0138    0.0000 C.3     1  UNL1       -0.0603
     46 C           8.5991   -3.2038    0.0000 C.3     1  UNL1        0.1882
     47 C           8.5991   -4.2038    0.0000 C.3     1  UNL1        0.1345
     48 C           7.7331   -4.7038    0.0000 C.3     1  UNL1        0.1209
     49 C           6.8671   -3.2038    0.0000 C.3     1  UNL1        0.1134
     50 C           6.8671   -4.2038    0.0000 C.3     1  UNL1        0.1188
     51 C           6.0010   -2.7038    0.0000 C.3     1  UNL1        0.0730
     52 C           8.5991   -6.2038    0.0000 C.3     1  UNL1        0.1884
     53 C           5.1350   -4.2038    0.0000 C.3     1  UNL1        0.1884
     54 C           8.5991   -7.2038    0.0000 C.3     1  UNL1        0.1341
     55 C           4.2690   -4.7038    0.0000 C.3     1  UNL1        0.1341
     56 C           9.4651   -7.7038    0.0000 C.3     1  UNL1        0.1141
     57 C          10.3312   -6.2038    0.0000 C.3     1  UNL1        0.1130
     58 C           3.4030   -4.2038    0.0000 C.3     1  UNL1        0.1141
     59 C          10.3312   -7.2038    0.0000 C.3     1  UNL1        0.1119
     60 C           4.2690   -2.7038    0.0000 C.3     1  UNL1        0.1130
     61 C           3.4030   -3.2038    0.0000 C.3     1  UNL1        0.1119
     62 C          11.1972   -5.7038    0.0000 C.3     1  UNL1        0.0730
     63 C           4.2690   -1.7038    0.0000 C.3     1  UNL1        0.0730
     64 H          11.1406    2.6548    0.0000 H       1  UNL1        0.0310
     65 H          11.0974    2.4300    0.0000 H       1  UNL1        0.0306
     66 H           8.8546    4.3762    0.0000 H       1  UNL1        0.0335
     67 H          10.2366    1.0653    0.0000 H       1  UNL1        0.0309
     68 H          11.5330    4.6658    0.0000 H       1  UNL1        0.0600
     69 H          11.4642    3.1670    0.0000 H       1  UNL1        0.0293
     70 H          11.6321    3.9792    0.0000 H       1  UNL1        0.0293
     71 H           8.4160    3.5716    0.0000 H       1  UNL1        0.0271
     72 H           8.0201    2.8798    0.0000 H       1  UNL1        0.0271
     73 H           8.0232    2.0951    0.0000 H       1  UNL1        0.0268
     74 H           8.4244    1.4064    0.0000 H       1  UNL1        0.0268
     75 H           8.9078    4.8862    0.0000 H       1  UNL1        0.0354
     76 H          11.1295   -0.4920    0.0000 H       1  UNL1        0.0307
     77 H          11.8902    1.3941    0.0000 H       1  UNL1        0.0268
     78 H          11.4804    2.0792    0.0000 H       1  UNL1        0.0268
     79 H          11.5060   -0.1297    0.0000 H       1  UNL1        0.0268
     80 H          11.8998    0.5647    0.0000 H       1  UNL1        0.0268
     81 H           8.9344    4.5279    0.0000 H       1  UNL1        0.0235
     82 H           8.0883    4.2977    0.0000 H       1  UNL1        0.0235
     83 H           8.3185    3.4517    0.0000 H       1  UNL1        0.0235
     84 H           8.3379    0.5134    0.0000 H       1  UNL1        0.0271
     85 H           7.9281   -0.1717    0.0000 H       1  UNL1        0.0271
     86 H          10.6185   -1.7389    0.0000 H       1  UNL1        0.0293
     87 H          11.0123   -1.0445    0.0000 H       1  UNL1        0.0293
     88 H           8.9380    1.4906    0.0000 H       1  UNL1        0.0235
     89 H           8.0902    1.2670    0.0000 H       1  UNL1        0.0235
     90 H           8.3139    0.4192    0.0000 H       1  UNL1        0.0235
     91 H           7.9180   -1.0445    0.0000 H       1  UNL1        0.0290
     92 H           8.3118   -1.7389    0.0000 H       1  UNL1        0.0290
     93 H           8.4473    6.1816    0.0000 H       1  UNL1        0.0234
     94 H           7.7125    5.7032    0.0000 H       1  UNL1        0.0234
     95 H           8.1910    4.9684    0.0000 H       1  UNL1        0.0234
     96 H          10.0027   -2.0127    0.0000 H       1  UNL1        0.0597
     97 H          11.1112    6.0649    0.0000 H       1  UNL1        0.0317
     98 H          11.4333    6.7940    0.0000 H       1  UNL1        0.0317
     99 H          11.3489    7.5741    0.0000 H       1  UNL1        0.0270
    100 H          10.8785    8.2176    0.0000 H       1  UNL1        0.0270
    101 H           8.7348    7.9858    0.0000 H       1  UNL1        0.0563
    102 H           8.4128    7.2567    0.0000 H       1  UNL1        0.0563
    103 H          10.3160    8.3855    0.0000 H       1  UNL1        0.0320
    104 H          10.3244    9.0804    0.0000 H       1  UNL1        0.0233
    105 H           9.6414    9.6302    0.0000 H       1  UNL1        0.0233
    106 H           9.0916    8.9471    0.0000 H       1  UNL1        0.0233
    107 H           8.5991   -2.5838    0.0000 H       1  UNL1        0.0937
    108 H           8.5991   -4.8238    0.0000 H       1  UNL1        0.0671
    109 H           7.1962   -5.0138    0.0000 H       1  UNL1        0.0651
    110 H           6.8671   -2.5838    0.0000 H       1  UNL1        0.0647
    111 H           6.3301   -3.8938    0.0000 H       1  UNL1        0.0651
    112 H          10.0021   -4.3938    0.0000 H       1  UNL1        0.2101
    113 H           5.3905   -2.5961    0.0000 H       1  UNL1        0.0584
    114 H           5.7890   -3.2864    0.0000 H       1  UNL1        0.0584
    115 H           8.5991   -5.5838    0.0000 H       1  UNL1        0.0938
    116 H           5.1350   -4.8238    0.0000 H       1  UNL1        0.0938
    117 H           5.4641   -1.3938    0.0000 H       1  UNL1        0.2095
    118 H           8.5991   -7.8238    0.0000 H       1  UNL1        0.0671
    119 H           3.7320   -5.0138    0.0000 H       1  UNL1        0.0671
    120 H          10.0021   -8.0138    0.0000 H       1  UNL1        0.0648
    121 H          10.3312   -5.5838    0.0000 H       1  UNL1        0.0647
    122 H           2.8660   -3.8938    0.0000 H       1  UNL1        0.0648
    123 H          10.8681   -6.8938    0.0000 H       1  UNL1        0.0647
    124 H           4.8059   -2.3938    0.0000 H       1  UNL1        0.0647
    125 H           3.4030   -2.5838    0.0000 H       1  UNL1        0.0647
    126 H           7.1962   -7.3938    0.0000 H       1  UNL1        0.2101
    127 H           3.7320   -6.0138    0.0000 H       1  UNL1        0.2101
    128 H          11.4092   -6.2864    0.0000 H       1  UNL1        0.0584
    129 H          11.8078   -5.5961    0.0000 H       1  UNL1        0.0584
    130 H          10.0021   -9.0138    0.0000 H       1  UNL1        0.2100
    131 H           4.8796   -1.8114    0.0000 H       1  UNL1        0.0584
    132 H           4.4810   -1.1211    0.0000 H       1  UNL1        0.0584
    133 H           2.0000   -4.3938    0.0000 H       1  UNL1        0.2100
    134 H          11.7341   -7.3938    0.0000 H       1  UNL1        0.2100
    135 H           2.0000   -3.0138    0.0000 H       1  UNL1        0.2100
    136 H          11.7341   -4.3938    0.0000 H       1  UNL1        0.2095
    137 H           3.4030   -0.5837    0.0000 H       1  UNL1        0.2095
@<TRIPOS>BOND
     1     1    24    1
     2    32     1    1
     3     2    32    1
     4     2    43    1
     5    40     3    1
     6    46     3    1
     7     4    46    1
     8     4    49    1
     9    47     5    1
    10     5   112    1
    11    48     6    1
    12    52     6    1
    13    50     7    1
    14    53     7    1
    15     8    51    1
    16     8   117    1
    17     9    52    1
    18     9    57    1
    19    10    53    1
    20    10    60    1
    21    54    11    1
    22    11   126    1
    23    55    12    1
    24    12   127    1
    25    56    13    1
    26    13   130    1
    27    58    14    1
    28    14   133    1
    29    59    15    1
    30    15   134    1
    31    61    16    1
    32    16   135    1
    33    17    62    1
    34    17   136    1
    35    18    63    1
    36    18   137    1
    37    19    20    1
    38    19    22    1
    39    19    27    1
    40    19    34    1
    41    20    21    1
    42    20    26    1
    43    20    64    1
    44    21    23    1
    45    21    31    1
    46    21    65    1
    47    22    24    1
    48    22    29    1
    49    22    66    1
    50    23    25    1
    51    23    28    1
    52    23    67    1
    53    24    26    1
    54    24    68    1
    55    25    30    1
    56    25    35    1
    57    25    37    1
    58    26    69    1
    59    26    70    1
    60    27    28    1
    61    27    71    1
    62    27    72    1
    63    28    73    1
    64    28    74    1
    65    29    32    1
    66    29    39    1
    67    29    75    1
    68    30    33    1
    69    30    36    1
    70    30    76    1
    71    31    33    1
    72    31    77    1
    73    31    78    1
    74    32    41    1
    75    33    79    1
    76    33    80    1
    77    34    81    1
    78    34    82    1
    79    34    83    1
    80    35    38    1
    81    35    84    1
    82    35    85    1
    83    36    40    1
    84    36    86    1
    85    36    87    1
    86    37    88    1
    87    37    89    1
    88    37    90    1
    89    38    40    1
    90    38    91    1
    91    38    92    1
    92    39    93    1
    93    39    94    1
    94    39    95    1
    95    40    96    1
    96    41    42    1
    97    41    97    1
    98    41    98    1
    99    42    44    1
   100    42    99    1
   101    42   100    1
   102    43    44    1
   103    43   101    1
   104    43   102    1
   105    44    45    1
   106    44   103    1
   107    45   104    1
   108    45   105    1
   109    45   106    1
   110    46    47    1
   111    46   107    1
   112    47    48    1
   113    47   108    1
   114    48    50    1
   115    48   109    1
   116    49    50    1
   117    49    51    1
   118    49   110    1
   119    50   111    1
   120    51   113    1
   121    51   114    1
   122    52    54    1
   123    52   115    1
   124    53    55    1
   125    53   116    1
   126    54    56    1
   127    54   118    1
   128    55    58    1
   129    55   119    1
   130    56    59    1
   131    56   120    1
   132    57    59    1
   133    57    62    1
   134    57   121    1
   135    58    61    1
   136    58   122    1
   137    59   123    1
   138    60    61    1
   139    60    63    1
   140    60   124    1
   141    61   125    1
   142    62   128    1
   143    62   129    1
   144    63   131    1
   145    63   132    1
