@<TRIPOS>MOLECULE
IMPHY017251
 22 22 0 0 0
SMALL
GASTEIGER

@<TRIPOS>ATOM
      1 C           2.8660    0.7500    0.0000 C.3     1  UNL1       -0.0009
      2 C           2.8660   -0.2500    0.0000 C.ar    1  UNL1       -0.0408
      3 C           2.0000    1.2500    0.0000 C.3     1  UNL1       -0.0549
      4 C           2.0000   -0.7500    0.0000 C.ar    1  UNL1       -0.0580
      5 C           3.7320   -0.7500    0.0000 C.ar    1  UNL1       -0.0580
      6 C           3.7320    1.2500    0.0000 C.2     1  UNL1       -0.0840
      7 C           2.0000   -1.7500    0.0000 C.ar    1  UNL1       -0.0615
      8 C           3.7320   -1.7500    0.0000 C.ar    1  UNL1       -0.0615
      9 C           2.8660   -2.2500    0.0000 C.ar    1  UNL1       -0.0617
     10 C           3.7320    2.2500    0.0000 C.2     1  UNL1       -0.1021
     11 H           2.8660    1.3700    0.0000 H       1  UNL1        0.0388
     12 H           2.3100    1.7869    0.0000 H       1  UNL1        0.0239
     13 H           1.4631    1.5600    0.0000 H       1  UNL1        0.0239
     14 H           1.6900    0.7131    0.0000 H       1  UNL1        0.0239
     15 H           1.4631   -0.4400    0.0000 H       1  UNL1        0.0620
     16 H           4.2690   -0.4400    0.0000 H       1  UNL1        0.0620
     17 H           4.2690    0.9400    0.0000 H       1  UNL1        0.0572
     18 H           1.4631   -2.0600    0.0000 H       1  UNL1        0.0618
     19 H           4.2690   -2.0600    0.0000 H       1  UNL1        0.0618
     20 H           2.8660   -2.8700    0.0000 H       1  UNL1        0.0618
     21 H           4.2690    2.5600    0.0000 H       1  UNL1        0.0532
     22 H           3.1951    2.5600    0.0000 H       1  UNL1        0.0532
@<TRIPOS>BOND
     1     1     2    1
     2     1     3    1
     3     1     6    1
     4     1    11    1
     5     2     4   ar
     6     2     5   ar
     7     3    12    1
     8     3    13    1
     9     3    14    1
    10     4     7   ar
    11     4    15    1
    12     5     8   ar
    13     5    16    1
    14     6    10    2
    15     6    17    1
    16     7     9   ar
    17     7    18    1
    18     8     9   ar
    19     8    19    1
    20     9    20    1
    21    10    21    1
    22    10    22    1
