@<TRIPOS>MOLECULE
IMPHY010477
 82 88 0 0 0
SMALL
GASTEIGER

@<TRIPOS>ATOM
      1 O           7.1457   -0.1424    0.0000 O.3     1  UNL1       -0.4602
      2 O           5.7836   -0.7674    0.0000 O.3     1  UNL1       -0.4572
      3 O           6.6442    3.7986    0.0000 O.3     1  UNL1       -0.4565
      4 O           7.3302    3.1288    0.0000 O.2     1  UNL1       -0.2963
      5 O           4.0176   -1.8052    0.0000 O.3     1  UNL1       -0.4541
      6 O           1.6098   -0.0914    0.0000 O.2     1  UNL1       -0.3004
      7 O           8.6556    0.7062    0.0000 O.2     1  UNL1       -0.2512
      8 O           4.9350   -2.2773    0.0000 O.2     1  UNL1       -0.2512
      9 O           8.3761    3.8186    0.0000 O.2     1  UNL1       -0.2511
     10 O           2.2856   -1.8119    0.0000 O.2     1  UNL1       -0.2449
     11 N           5.4321    1.9757    0.0000 N.3     1  UNL1       -0.2978
     12 C           4.8958    0.7640    0.0000 C.3     1  UNL1        0.0394
     13 C           5.7618    2.2640    0.0000 C.3     1  UNL1        0.0309
     14 C           5.7618    1.2640    0.0000 C.3     1  UNL1        0.0181
     15 C           5.8836    0.6170    0.0000 C.3     1  UNL1        0.0304
     16 C           6.3830    1.4820    0.0000 C.3     1  UNL1        0.0442
     17 C           4.0297    1.2640    0.0000 C.3     1  UNL1       -0.0025
     18 C           4.0297    2.2640    0.0000 C.3     1  UNL1        0.0155
     19 C           4.8958    2.7640    0.0000 C.3     1  UNL1       -0.0266
     20 C           6.6557    0.7294    0.0000 C.3     1  UNL1        0.1204
     21 C           4.9118   -0.2775    0.0000 C.3     1  UNL1        0.1475
     22 C           6.6557    2.7987    0.0000 C.3     1  UNL1        0.1313
     23 C           3.1197    0.7572    0.0000 C.3     1  UNL1        0.0315
     24 C           7.5618    1.2432    0.0000 C.3     1  UNL1        0.0792
     25 C           7.1316    2.1487    0.0000 C.2     1  UNL1        0.1492
     26 C           7.5618    2.2848    0.0000 C.2     1  UNL1       -0.0224
     27 C           4.0138   -0.8052    0.0000 C.3     1  UNL1        0.1415
     28 C           3.1117   -0.2844    0.0000 C.3     1  UNL1        0.0001
     29 C           5.6335    2.9552    0.0000 C.3     1  UNL1       -0.0121
     30 C           2.6298    1.6289    0.0000 C.3     1  UNL1       -0.0527
     31 C           2.1198    0.7687    0.0000 C.2     1  UNL1        0.1266
     32 C           8.4259    2.7882    0.0000 C.2     1  UNL1       -0.0952
     33 C           8.1456   -0.1539    0.0000 C.2     1  UNL1        0.3042
     34 C           5.7951   -1.7674    0.0000 C.2     1  UNL1        0.3043
     35 C           7.5044    4.3086    0.0000 C.2     1  UNL1        0.3045
     36 C           3.1536   -2.3086    0.0000 C.2     1  UNL1        0.3396
     37 C           8.6356   -1.0257    0.0000 C.3     1  UNL1        0.0332
     38 C           6.6669   -2.2573    0.0000 C.3     1  UNL1        0.0332
     39 C           7.4928    5.3085    0.0000 C.3     1  UNL1        0.0333
     40 C           3.1574   -3.3086    0.0000 C.ar    1  UNL1        0.0590
     41 C           4.0254   -3.8052    0.0000 C.ar    1  UNL1       -0.0478
     42 C           2.2933   -3.8119    0.0000 C.ar    1  UNL1       -0.0478
     43 C           4.0292   -4.8052    0.0000 C.ar    1  UNL1       -0.0610
     44 C           2.2972   -4.8119    0.0000 C.ar    1  UNL1       -0.0610
     45 C           3.1651   -5.3085    0.0000 C.ar    1  UNL1       -0.0617
     46 H           5.2153    0.6130    0.0000 H       1  UNL1        0.0351
     47 H           5.8596   -0.2326    0.0000 H       1  UNL1        0.0476
     48 H           7.2329    1.4946    0.0000 H       1  UNL1        0.0400
     49 H           3.2936    1.6890    0.0000 H       1  UNL1        0.0332
     50 H           3.4926    2.9228    0.0000 H       1  UNL1        0.0466
     51 H           4.4972    3.2390    0.0000 H       1  UNL1        0.0287
     52 H           5.2943    3.2390    0.0000 H       1  UNL1        0.0287
     53 H           6.5410    0.1201    0.0000 H       1  UNL1        0.0747
     54 H           4.9178   -0.8974    0.0000 H       1  UNL1        0.0778
     55 H           7.1897    3.1138    0.0000 H       1  UNL1        0.0788
     56 H           8.2963    0.8154    0.0000 H       1  UNL1        0.0460
     57 H           3.4774   -1.1163    0.0000 H       1  UNL1        0.0772
     58 H           2.8982   -0.8665    0.0000 H       1  UNL1        0.0311
     59 H           2.5017   -0.1736    0.0000 H       1  UNL1        0.0311
     60 H           5.0262    3.0801    0.0000 H       1  UNL1        0.0391
     61 H           5.7584    3.5625    0.0000 H       1  UNL1        0.0391
     62 H           6.2408    2.8304    0.0000 H       1  UNL1        0.0391
     63 H           2.0893    1.3252    0.0000 H       1  UNL1        0.0239
     64 H           2.3260    2.1694    0.0000 H       1  UNL1        0.0239
     65 H           3.1703    1.9327    0.0000 H       1  UNL1        0.0239
     66 H           1.8160    1.3092    0.0000 H       1  UNL1        0.1032
     67 H           8.4235    3.4082    0.0000 H       1  UNL1        0.0536
     68 H           8.9640    2.4802    0.0000 H       1  UNL1        0.0536
     69 H           9.1760   -0.7219    0.0000 H       1  UNL1        0.0342
     70 H           8.9393   -1.5662    0.0000 H       1  UNL1        0.0342
     71 H           8.0951   -1.3295    0.0000 H       1  UNL1        0.0342
     72 H           6.9707   -1.7168    0.0000 H       1  UNL1        0.0342
     73 H           7.2074   -2.5611    0.0000 H       1  UNL1        0.0342
     74 H           6.3631   -2.7978    0.0000 H       1  UNL1        0.0342
     75 H           6.8728    5.3014    0.0000 H       1  UNL1        0.0342
     76 H           7.4856    5.9285    0.0000 H       1  UNL1        0.0342
     77 H           8.1128    5.3157    0.0000 H       1  UNL1        0.0342
     78 H           4.5611   -3.4931    0.0000 H       1  UNL1        0.0626
     79 H           1.7552   -3.5040    0.0000 H       1  UNL1        0.0626
     80 H           4.5673   -5.1131    0.0000 H       1  UNL1        0.0618
     81 H           1.7614   -5.1240    0.0000 H       1  UNL1        0.0618
     82 H           3.1675   -5.9285    0.0000 H       1  UNL1        0.0618
@<TRIPOS>BOND
     1    20     1    1
     2     1    33    1
     3    21     2    1
     4     2    34    1
     5    22     3    1
     6     3    35    1
     7     4    25    2
     8    27     5    1
     9     5    36    1
    10     6    31    2
    11     7    33    2
    12     8    34    2
    13     9    35    2
    14    10    36    2
    15    11    15    1
    16    11    18    1
    17    11    29    1
    18    12    14    1
    19    12    15    1
    20    12    17    1
    21    12    21    1
    22    13    14    1
    23    13    16    1
    24    13    19    1
    25    13    22    1
    26    14    20    1
    27    14    46    1
    28    15    16    1
    29    15    47    1
    30    16    25    1
    31    16    48    1
    32    17    18    1
    33    17    23    1
    34    17    49    1
    35    18    19    1
    36    18    50    1
    37    19    51    1
    38    19    52    1
    39    20    24    1
    40    20    53    1
    41    21    27    1
    42    21    54    1
    43    22    26    1
    44    22    55    1
    45    23    28    1
    46    23    30    1
    47    23    31    1
    48    24    25    1
    49    24    26    1
    50    24    56    1
    51    26    32    2
    52    27    28    1
    53    27    57    1
    54    28    58    1
    55    28    59    1
    56    29    60    1
    57    29    61    1
    58    29    62    1
    59    30    63    1
    60    30    64    1
    61    30    65    1
    62    31    66    1
    63    32    67    1
    64    32    68    1
    65    33    37    1
    66    34    38    1
    67    35    39    1
    68    36    40    1
    69    37    69    1
    70    37    70    1
    71    37    71    1
    72    38    72    1
    73    38    73    1
    74    38    74    1
    75    39    75    1
    76    39    76    1
    77    39    77    1
    78    40    41   ar
    79    40    42   ar
    80    41    43   ar
    81    41    78    1
    82    42    44   ar
    83    42    79    1
    84    43    45   ar
    85    43    80    1
    86    44    45   ar
    87    44    81    1
    88    45    82    1
