@<TRIPOS>MOLECULE
IMPHY008543
 33 35 0 0 0
SMALL
GASTEIGER

@<TRIPOS>ATOM
      1 O           4.6660   -1.2673    0.0000 O.3     1  UNL1       -0.4792
      2 N           4.6660    1.7327    0.0000 N.ar    1  UNL1       -0.2314
      3 N           5.5321    0.2327    0.0000 N.ar    1  UNL1       -0.1971
      4 C           6.3981    1.7327    0.0000 C.3     1  UNL1        0.0326
      5 C           5.5321    1.2327    0.0000 C.ar    1  UNL1        0.1378
      6 C           3.8000    0.2327    0.0000 C.ar    1  UNL1        0.0619
      7 C           3.8000    1.2327    0.0000 C.ar    1  UNL1        0.0781
      8 C           7.2641    1.2327    0.0000 C.ar    1  UNL1       -0.0401
      9 C           4.6660   -0.2673    0.0000 C.ar    1  UNL1        0.2256
     10 C           2.9061   -0.3020    0.0000 C.ar    1  UNL1       -0.0475
     11 C           2.9061    1.7673    0.0000 C.ar    1  UNL1       -0.0355
     12 C           7.2641    0.2327    0.0000 C.ar    1  UNL1       -0.0582
     13 C           8.1301    1.7327    0.0000 C.ar    1  UNL1       -0.0582
     14 C           2.0000    0.2119    0.0000 C.ar    1  UNL1       -0.0609
     15 C           2.0000    1.2535    0.0000 C.ar    1  UNL1       -0.0597
     16 C           8.1301   -0.2673    0.0000 C.ar    1  UNL1       -0.0615
     17 C           8.9962    1.2327    0.0000 C.ar    1  UNL1       -0.0615
     18 C           8.9962    0.2327    0.0000 C.ar    1  UNL1       -0.0617
     19 C           5.5321   -1.7673    0.0000 C.3     1  UNL1        0.0804
     20 H           6.7966    2.2076    0.0000 H       1  UNL1        0.0392
     21 H           5.9996    2.2076    0.0000 H       1  UNL1        0.0392
     22 H           2.9132   -0.9220    0.0000 H       1  UNL1        0.0626
     23 H           2.9132    2.3873    0.0000 H       1  UNL1        0.0639
     24 H           6.7272   -0.0773    0.0000 H       1  UNL1        0.0620
     25 H           8.1301    2.3527    0.0000 H       1  UNL1        0.0620
     26 H           1.4643   -0.1002    0.0000 H       1  UNL1        0.0618
     27 H           1.4643    1.5656    0.0000 H       1  UNL1        0.0618
     28 H           8.1301   -0.8873    0.0000 H       1  UNL1        0.0618
     29 H           9.5331    1.5427    0.0000 H       1  UNL1        0.0618
     30 H           9.5331   -0.0773    0.0000 H       1  UNL1        0.0618
     31 H           5.2221   -2.3043    0.0000 H       1  UNL1        0.0660
     32 H           6.0690   -2.0773    0.0000 H       1  UNL1        0.0660
     33 H           5.8421   -1.2304    0.0000 H       1  UNL1        0.0660
@<TRIPOS>BOND
     1     1     9    1
     2     1    19    1
     3     2     5   ar
     4     2     7   ar
     5     3     5   ar
     6     3     9   ar
     7     4     5    1
     8     4     8    1
     9     4    20    1
    10     4    21    1
    11     6     7   ar
    12     6     9   ar
    13     6    10   ar
    14     7    11   ar
    15     8    12   ar
    16     8    13   ar
    17    10    14   ar
    18    10    22    1
    19    11    15   ar
    20    11    23    1
    21    12    16   ar
    22    12    24    1
    23    13    17   ar
    24    13    25    1
    25    14    15   ar
    26    14    26    1
    27    15    27    1
    28    16    18   ar
    29    16    28    1
    30    17    18   ar
    31    17    29    1
    32    18    30    1
    33    19    31    1
    34    19    32    1
    35    19    33    1
