@<TRIPOS>MOLECULE
IMPHY007041
 11 11 0 0 0
SMALL
GASTEIGER

@<TRIPOS>ATOM
      1 O           2.8090   -0.4197    0.0000 O.2     1  UNL1       -0.4603
      2 O           4.7770   -1.1191    0.0000 O.2     1  UNL1       -0.2924
      3 C           3.6180    0.1681    0.0000 C.ar    1  UNL1        0.1666
      4 C           3.3090    1.1191    0.0000 C.ar    1  UNL1       -0.0133
      5 C           2.3090    1.1191    0.0000 C.ar    1  UNL1       -0.0232
      6 C           2.0000    0.1681    0.0000 C.ar    1  UNL1        0.0927
      7 C           4.5691   -0.1410    0.0000 C.2     1  UNL1        0.1851
      8 H           3.6734    1.6207    0.0000 H       1  UNL1        0.0656
      9 H           1.9446    1.6207    0.0000 H       1  UNL1        0.0649
     10 H           1.4103   -0.0235    0.0000 H       1  UNL1        0.1029
     11 H           5.0298    0.2739    0.0000 H       1  UNL1        0.1114
@<TRIPOS>BOND
     1     1     3   ar
     2     1     6   ar
     3     2     7    2
     4     3     4   ar
     5     3     7    1
     6     4     5   ar
     7     4     8    1
     8     5     6   ar
     9     5     9    1
    10     6    10    1
    11     7    11    1
