@<TRIPOS>MOLECULE
IMPHY002704
 40 41 0 0 0
SMALL
GASTEIGER

@<TRIPOS>ATOM
      1 O           6.3301   -2.7500    0.0000 O.3     1  UNL1       -0.4912
      2 O           8.0622   -1.7500    0.0000 O.3     1  UNL1       -0.5033
      3 C           5.4641   -1.2500    0.0000 C.ar    1  UNL1        0.0022
      4 C           4.5981   -1.7500    0.0000 C.3     1  UNL1       -0.0056
      5 C           6.3301    0.2500    0.0000 C.ar    1  UNL1       -0.0139
      6 C           5.4641   -0.2500    0.0000 C.ar    1  UNL1       -0.0468
      7 C           6.3301   -1.7500    0.0000 C.ar    1  UNL1        0.1647
      8 C           7.1962   -0.2500    0.0000 C.ar    1  UNL1       -0.0088
      9 C           7.1962   -1.2500    0.0000 C.ar    1  UNL1        0.1593
     10 C           6.3301    1.2500    0.0000 C.ar    1  UNL1       -0.0178
     11 C           3.7320   -1.2500    0.0000 C.2     1  UNL1       -0.0809
     12 C           2.8660   -1.7500    0.0000 C.2     1  UNL1       -0.0793
     13 C           7.1962    1.7500    0.0000 C.ar    1  UNL1       -0.0540
     14 C           5.4641    1.7500    0.0000 C.ar    1  UNL1       -0.0540
     15 C           2.0000   -1.2500    0.0000 C.3     1  UNL1       -0.0440
     16 C           2.8660   -2.7500    0.0000 C.3     1  UNL1       -0.0440
     17 C           7.1962    2.7500    0.0000 C.ar    1  UNL1       -0.0612
     18 C           5.4641    2.7500    0.0000 C.ar    1  UNL1       -0.0612
     19 C           6.3301    3.2500    0.0000 C.ar    1  UNL1       -0.0617
     20 C           7.1962   -3.2500    0.0000 C.3     1  UNL1        0.0790
     21 H           4.1996   -2.2250    0.0000 H       1  UNL1        0.0357
     22 H           4.9966   -2.2250    0.0000 H       1  UNL1        0.0357
     23 H           4.9272    0.0600    0.0000 H       1  UNL1        0.0628
     24 H           7.7331    0.0600    0.0000 H       1  UNL1        0.0661
     25 H           3.7320   -0.6300    0.0000 H       1  UNL1        0.0575
     26 H           7.7331    1.4400    0.0000 H       1  UNL1        0.0624
     27 H           4.9272    1.4400    0.0000 H       1  UNL1        0.0624
     28 H           2.3100   -0.7131    0.0000 H       1  UNL1        0.0274
     29 H           1.4631   -0.9400    0.0000 H       1  UNL1        0.0274
     30 H           2.2460   -2.7500    0.0000 H       1  UNL1        0.0274
     31 H           2.8660   -3.3700    0.0000 H       1  UNL1        0.0274
     32 H           3.4860   -2.7500    0.0000 H       1  UNL1        0.0274
     33 H           1.6900   -1.7869    0.0000 H       1  UNL1        0.0274
     34 H           7.7331    3.0600    0.0000 H       1  UNL1        0.0618
     35 H           4.9272    3.0600    0.0000 H       1  UNL1        0.0618
     36 H           6.3301    3.8700    0.0000 H       1  UNL1        0.0618
     37 H           8.5991   -1.4400    0.0000 H       1  UNL1        0.2923
     38 H           6.8862   -3.7869    0.0000 H       1  UNL1        0.0660
     39 H           7.7331   -3.5600    0.0000 H       1  UNL1        0.0660
     40 H           7.5062   -2.7131    0.0000 H       1  UNL1        0.0660
@<TRIPOS>BOND
     1     1     7    1
     2     1    20    1
     3     2     9    1
     4     2    37    1
     5     3     4    1
     6     3     6   ar
     7     3     7   ar
     8     4    11    1
     9     4    21    1
    10     4    22    1
    11     5     6   ar
    12     5     8   ar
    13     5    10    1
    14     6    23    1
    15     7     9   ar
    16     8     9   ar
    17     8    24    1
    18    10    13   ar
    19    10    14   ar
    20    11    12    2
    21    11    25    1
    22    12    15    1
    23    12    16    1
    24    13    17   ar
    25    13    26    1
    26    14    18   ar
    27    14    27    1
    28    15    28    1
    29    15    29    1
    30    15    33    1
    31    16    30    1
    32    16    31    1
    33    16    32    1
    34    17    19   ar
    35    17    34    1
    36    18    19   ar
    37    18    35    1
    38    19    36    1
    39    20    38    1
    40    20    39    1
    41    20    40    1
