@<TRIPOS>MOLECULE
IMPHY006640
 20 20 0 0 0
SMALL
GASTEIGER

@<TRIPOS>ATOM
      1 O           4.2690    1.2500    0.0000 O.3     1  UNL1       -0.4915
      2 O           2.5369    0.2500    0.0000 O.3     1  UNL1       -0.5033
      3 C           5.1350   -1.2500    0.0000 C.ar    1  UNL1       -0.0468
      4 C           4.2690    0.2500    0.0000 C.ar    1  UNL1        0.1615
      5 C           5.1350   -0.2500    0.0000 C.ar    1  UNL1       -0.0134
      6 C           4.2690   -1.7500    0.0000 C.ar    1  UNL1       -0.0552
      7 C           3.4030   -0.2500    0.0000 C.ar    1  UNL1        0.1585
      8 C           3.4030   -1.2500    0.0000 C.ar    1  UNL1       -0.0163
      9 C           6.0010   -1.7500    0.0000 C.3     1  UNL1       -0.0396
     10 C           5.1350    1.7500    0.0000 C.3     1  UNL1        0.0790
     11 H           5.6720    0.0600    0.0000 H       1  UNL1        0.0658
     12 H           4.2690   -2.3700    0.0000 H       1  UNL1        0.0621
     13 H           2.8660   -1.5600    0.0000 H       1  UNL1        0.0655
     14 H           5.6910   -2.2869    0.0000 H       1  UNL1        0.0278
     15 H           6.5380   -2.0600    0.0000 H       1  UNL1        0.0278
     16 H           6.3110   -1.2131    0.0000 H       1  UNL1        0.0278
     17 H           5.4450    1.2131    0.0000 H       1  UNL1        0.0660
     18 H           5.6720    2.0600    0.0000 H       1  UNL1        0.0660
     19 H           4.8250    2.2869    0.0000 H       1  UNL1        0.0660
     20 H           2.0000   -0.0600    0.0000 H       1  UNL1        0.2923
@<TRIPOS>BOND
     1     1     4    1
     2     1    10    1
     3     2     7    1
     4     2    20    1
     5     3     5   ar
     6     3     6   ar
     7     3     9    1
     8     4     5   ar
     9     4     7   ar
    10     5    11    1
    11     6     8   ar
    12     6    12    1
    13     7     8   ar
    14     8    13    1
    15     9    14    1
    16     9    15    1
    17     9    16    1
    18    10    17    1
    19    10    18    1
    20    10    19    1
