@<TRIPOS>MOLECULE
IMPHY008042
 28 29 0 0 0
SMALL
GASTEIGER

@<TRIPOS>ATOM
      1 O           2.8660   -0.6224    0.0000 O.3     1  UNL1       -0.4641
      2 O           2.0000    0.8776    0.0000 O.2     1  UNL1       -0.2505
      3 C           4.5981    0.3776    0.0000 C.3     1  UNL1       -0.0222
      4 C           4.5981   -0.6224    0.0000 C.3     1  UNL1       -0.0005
      5 C           5.5443   -0.9271    0.0000 C.3     1  UNL1       -0.0377
      6 C           5.5443    0.6824    0.0000 C.3     1  UNL1       -0.0488
      7 C           6.1279   -0.1224    0.0000 C.3     1  UNL1       -0.0498
      8 C           3.7320    0.8776    0.0000 C.3     1  UNL1        0.0568
      9 C           3.7320   -1.1224    0.0000 C.3     1  UNL1        0.0958
     10 C           5.8550   -1.8776    0.0000 C.3     1  UNL1       -0.0620
     11 C           2.8660    0.3776    0.0000 C.2     1  UNL1        0.3102
     12 C           3.7320    1.8776    0.0000 C.3     1  UNL1       -0.0520
     13 H           4.6880    1.2228    0.0000 H       1  UNL1        0.0312
     14 H           4.6880   -1.4676    0.0000 H       1  UNL1        0.0339
     15 H           5.1068   -1.3665    0.0000 H       1  UNL1        0.0302
     16 H           6.0817    0.9916    0.0000 H       1  UNL1        0.0268
     17 H           5.2933    1.2493    0.0000 H       1  UNL1        0.0268
     18 H           6.5888   -0.5371    0.0000 H       1  UNL1        0.0268
     19 H           6.5888    0.2924    0.0000 H       1  UNL1        0.0268
     20 H           4.2690    1.1876    0.0000 H       1  UNL1        0.0413
     21 H           3.3335   -1.5973    0.0000 H       1  UNL1        0.0700
     22 H           4.1306   -1.5973    0.0000 H       1  UNL1        0.0700
     23 H           5.2656   -2.0702    0.0000 H       1  UNL1        0.0233
     24 H           6.0476   -2.4670    0.0000 H       1  UNL1        0.0233
     25 H           6.4443   -1.6850    0.0000 H       1  UNL1        0.0233
     26 H           4.3520    1.8776    0.0000 H       1  UNL1        0.0238
     27 H           3.7320    2.4976    0.0000 H       1  UNL1        0.0238
     28 H           3.1120    1.8776    0.0000 H       1  UNL1        0.0238
@<TRIPOS>BOND
     1     1     9    1
     2     1    11    1
     3     2    11    2
     4     3     4    1
     5     3     6    1
     6     3     8    1
     7     3    13    1
     8     4     5    1
     9     4     9    1
    10     4    14    1
    11     5     7    1
    12     5    10    1
    13     5    15    1
    14     6     7    1
    15     6    16    1
    16     6    17    1
    17     7    18    1
    18     7    19    1
    19     8    11    1
    20     8    12    1
    21     8    20    1
    22     9    21    1
    23     9    22    1
    24    10    23    1
    25    10    24    1
    26    10    25    1
    27    12    26    1
    28    12    27    1
    29    12    28    1
