@<TRIPOS>MOLECULE
IMPHY010443
 57 58 0 0 0
SMALL
GASTEIGER

@<TRIPOS>ATOM
      1 O           6.8671   -1.3450    0.0000 O.3     1  UNL1       -0.3425
      2 O           5.1350   -1.3450    0.0000 O.3     1  UNL1       -0.3405
      3 O           8.5991   -0.3450    0.0000 O.3     1  UNL1       -0.3849
      4 O           6.8671   -3.3450    0.0000 O.3     1  UNL1       -0.3841
      5 O           5.1350   -4.3450    0.0000 O.3     1  UNL1       -0.3864
      6 O           3.4030   -3.3450    0.0000 O.3     1  UNL1       -0.3865
      7 O           2.5369   -1.8450    0.0000 O.3     1  UNL1       -0.3924
      8 O           6.8671    4.6550    0.0000 O.2     1  UNL1       -0.2930
      9 C           6.0010    1.1550    0.0000 C.3     1  UNL1       -0.0074
     10 C           6.8671   -0.3450    0.0000 C.3     1  UNL1        0.0922
     11 C           6.0010    0.1550    0.0000 C.3     1  UNL1       -0.0146
     12 C           7.7331    0.1550    0.0000 C.3     1  UNL1        0.1027
     13 C           6.8671    1.6550    0.0000 C.2     1  UNL1       -0.0400
     14 C           7.7331    1.1550    0.0000 C.2     1  UNL1       -0.0384
     15 C           6.0010   -1.8450    0.0000 C.3     1  UNL1        0.1883
     16 C           6.0010   -2.8450    0.0000 C.3     1  UNL1        0.1341
     17 C           5.1350   -3.3450    0.0000 C.3     1  UNL1        0.1141
     18 C           5.0010    1.1550    0.0000 C.3     1  UNL1       -0.0557
     19 C           5.5010    2.0210    0.0000 C.3     1  UNL1       -0.0557
     20 C           4.2690   -2.8450    0.0000 C.3     1  UNL1        0.1119
     21 C           4.2690   -1.8450    0.0000 C.3     1  UNL1        0.1130
     22 C           8.5991    1.6550    0.0000 C.3     1  UNL1       -0.0407
     23 C           6.8671    2.6550    0.0000 C.2     1  UNL1       -0.0547
     24 C           3.4030   -1.3450    0.0000 C.3     1  UNL1        0.0730
     25 C           7.7331    3.1550    0.0000 C.2     1  UNL1       -0.0192
     26 C           7.7331    4.1550    0.0000 C.2     1  UNL1        0.1530
     27 C           8.5991    4.6550    0.0000 C.3     1  UNL1       -0.0020
     28 H           7.4040   -0.6550    0.0000 H       1  UNL1        0.0626
     29 H           5.3905    0.2627    0.0000 H       1  UNL1        0.0299
     30 H           5.7890   -0.4276    0.0000 H       1  UNL1        0.0299
     31 H           8.2700    0.4650    0.0000 H       1  UNL1        0.0666
     32 H           6.0010   -1.2250    0.0000 H       1  UNL1        0.0938
     33 H           6.0010   -3.4650    0.0000 H       1  UNL1        0.0671
     34 H           4.5981   -3.6550    0.0000 H       1  UNL1        0.0648
     35 H           6.0380    2.3310    0.0000 H       1  UNL1        0.0238
     36 H           5.1910    2.5580    0.0000 H       1  UNL1        0.0238
     37 H           4.9641    1.7110    0.0000 H       1  UNL1        0.0238
     38 H           5.0010    1.7750    0.0000 H       1  UNL1        0.0238
     39 H           4.3810    1.1550    0.0000 H       1  UNL1        0.0238
     40 H           5.0010    0.5350    0.0000 H       1  UNL1        0.0238
     41 H           3.7320   -2.5350    0.0000 H       1  UNL1        0.0647
     42 H           4.2690   -1.2250    0.0000 H       1  UNL1        0.0647
     43 H           8.9091    1.1181    0.0000 H       1  UNL1        0.0275
     44 H           9.1360    1.9650    0.0000 H       1  UNL1        0.0275
     45 H           8.2891    2.1919    0.0000 H       1  UNL1        0.0275
     46 H           6.3301    2.9650    0.0000 H       1  UNL1        0.0622
     47 H           3.8015   -0.8701    0.0000 H       1  UNL1        0.0584
     48 H           3.0044   -0.8701    0.0000 H       1  UNL1        0.0584
     49 H           9.1360   -0.0350    0.0000 H       1  UNL1        0.2103
     50 H           6.8671   -3.9650    0.0000 H       1  UNL1        0.2101
     51 H           4.5981   -4.6550    0.0000 H       1  UNL1        0.2100
     52 H           3.4030   -3.9650    0.0000 H       1  UNL1        0.2100
     53 H           8.2700    2.8450    0.0000 H       1  UNL1        0.0652
     54 H           2.0000   -1.5350    0.0000 H       1  UNL1        0.2095
     55 H           8.9091    4.1181    0.0000 H       1  UNL1        0.0309
     56 H           9.1360    4.9650    0.0000 H       1  UNL1        0.0309
     57 H           8.2891    5.1919    0.0000 H       1  UNL1        0.0309
@<TRIPOS>BOND
     1     1    10    1
     2    15     1    1
     3     2    15    1
     4     2    21    1
     5     3    12    1
     6     3    49    1
     7    16     4    1
     8     4    50    1
     9    17     5    1
    10     5    51    1
    11    20     6    1
    12     6    52    1
    13     7    24    1
    14     7    54    1
    15     8    26    2
    16     9    11    1
    17     9    13    1
    18     9    18    1
    19     9    19    1
    20    10    11    1
    21    10    12    1
    22    10    28    1
    23    11    29    1
    24    11    30    1
    25    12    14    1
    26    12    31    1
    27    13    14    2
    28    13    23    1
    29    14    22    1
    30    15    16    1
    31    15    32    1
    32    16    17    1
    33    16    33    1
    34    17    20    1
    35    17    34    1
    36    18    38    1
    37    18    39    1
    38    18    40    1
    39    19    35    1
    40    19    36    1
    41    19    37    1
    42    20    21    1
    43    20    41    1
    44    21    24    1
    45    21    42    1
    46    22    43    1
    47    22    44    1
    48    22    45    1
    49    23    25    2
    50    23    46    1
    51    24    47    1
    52    24    48    1
    53    25    26    1
    54    25    53    1
    55    26    27    1
    56    27    55    1
    57    27    56    1
    58    27    57    1
