@<TRIPOS>MOLECULE
IMPHY012711
 36 40 0 0 0
SMALL
GASTEIGER

@<TRIPOS>ATOM
      1 O           3.5229   -1.9067    0.0000 O.3     1  UNL1       -0.4522
      2 O           2.0000   -0.7949    0.0000 O.2     1  UNL1       -0.4605
      3 O           5.3191    0.9396    0.0000 O.2     1  UNL1       -0.4539
      4 O           7.0672   -2.1019    0.0000 O.3     1  UNL1       -0.4942
      5 O           7.9714   -0.6051    0.0000 O.2     1  UNL1       -0.2861
      6 O           8.9273    0.9645    0.0000 O.3     1  UNL1       -0.5059
      7 C           3.5229   -0.2972    0.0000 C.3     1  UNL1        0.0863
      8 C           2.9393   -1.1019    0.0000 C.3     1  UNL1        0.2528
      9 C           4.4691   -0.6019    0.0000 C.ar    1  UNL1        0.0515
     10 C           4.4691   -1.6019    0.0000 C.ar    1  UNL1        0.1360
     11 C           5.3351   -0.1019    0.0000 C.ar    1  UNL1        0.1503
     12 C           2.9393    0.5003    0.0000 C.2     1  UNL1       -0.0349
     13 C           6.2012   -0.6019    0.0000 C.ar    1  UNL1        0.1067
     14 C           5.3351   -2.1019    0.0000 C.ar    1  UNL1        0.0232
     15 C           6.2012   -1.6019    0.0000 C.ar    1  UNL1        0.1379
     16 C           2.0000    0.1933    0.0000 C.2     1  UNL1        0.0859
     17 C           7.1112   -0.0951    0.0000 C.ar    1  UNL1        0.2073
     18 C           7.1192    0.9465    0.0000 C.ar    1  UNL1        0.1059
     19 C           6.2171    1.4673    0.0000 C.ar    1  UNL1        0.1428
     20 C           8.0671    1.4745    0.0000 C.ar    1  UNL1        0.1312
     21 C           6.2004    2.5522    0.0000 C.ar    1  UNL1       -0.0184
     22 C           8.0755    2.5594    0.0000 C.ar    1  UNL1       -0.0192
     23 C           7.1358    3.1019    0.0000 C.ar    1  UNL1       -0.0548
     24 C           7.0672   -3.1019    0.0000 C.3     1  UNL1        0.0788
     25 H           4.0204    0.3920    0.0000 H       1  UNL1        0.0468
     26 H           2.4388   -1.7889    0.0000 H       1  UNL1        0.1214
     27 H           3.1294    1.0904    0.0000 H       1  UNL1        0.0611
     28 H           5.3351   -2.7219    0.0000 H       1  UNL1        0.0691
     29 H           1.4981    0.5573    0.0000 H       1  UNL1        0.1021
     30 H           5.6599    2.8560    0.0000 H       1  UNL1        0.0654
     31 H           8.6136    2.8674    0.0000 H       1  UNL1        0.0654
     32 H           7.1334    3.7219    0.0000 H       1  UNL1        0.0620
     33 H           6.4472   -3.1019    0.0000 H       1  UNL1        0.0660
     34 H           7.0672   -3.7219    0.0000 H       1  UNL1        0.0660
     35 H           7.6872   -3.1019    0.0000 H       1  UNL1        0.0660
     36 H           9.4678    1.2683    0.0000 H       1  UNL1        0.2922
@<TRIPOS>BOND
     1     1     8    1
     2     1    10    1
     3     2     8    1
     4     2    16    1
     5     3    11   ar
     6     3    19   ar
     7     4    15    1
     8     4    24    1
     9     5    17    2
    10     6    20    1
    11     6    36    1
    12     7     8    1
    13     7     9    1
    14     7    12    1
    15     7    25    1
    16     8    26    1
    17     9    10   ar
    18     9    11   ar
    19    10    14   ar
    20    11    13   ar
    21    12    16    2
    22    12    27    1
    23    13    15   ar
    24    13    17   ar
    25    14    15   ar
    26    14    28    1
    27    16    29    1
    28    17    18   ar
    29    18    19   ar
    30    18    20   ar
    31    19    21   ar
    32    20    22   ar
    33    21    23   ar
    34    21    30    1
    35    22    23   ar
    36    22    31    1
    37    23    32    1
    38    24    33    1
    39    24    34    1
    40    24    35    1
