@<TRIPOS>MOLECULE
IMPHY001125
 79 83 0 0 0
SMALL
GASTEIGER

@<TRIPOS>ATOM
      1 O          10.1330    3.0745    0.0000 O.2     1  UNL1       -0.2968
      2 C           4.7931   -0.0699    0.0000 C.3     1  UNL1       -0.0196
      3 C           5.6591   -0.5699    0.0000 C.3     1  UNL1       -0.0051
      4 C           3.8831   -0.5767    0.0000 C.3     1  UNL1       -0.0289
      5 C           3.8751   -1.6183    0.0000 C.3     1  UNL1       -0.0235
      6 C           6.5251    0.9301    0.0000 C.3     1  UNL1       -0.0136
      7 C           5.6752   -1.6114    0.0000 C.3     1  UNL1       -0.0429
      8 C           6.5251   -0.0699    0.0000 C.2     1  UNL1       -0.0634
      9 C           4.7931    0.9301    0.0000 C.3     1  UNL1       -0.0460
     10 C           2.9396   -2.1680    0.0000 C.3     1  UNL1       -0.0292
     11 C           4.7771   -2.1391    0.0000 C.3     1  UNL1       -0.0461
     12 C           7.4191    1.4648    0.0000 C.3     1  UNL1       -0.0212
     13 C           5.6591    1.4301    0.0000 C.3     1  UNL1       -0.0455
     14 C           2.9562   -0.0126    0.0000 C.3     1  UNL1       -0.0492
     15 C           8.3252    0.9509    0.0000 C.3     1  UNL1       -0.0198
     16 C           3.9271    0.4301    0.0000 C.3     1  UNL1       -0.0585
     17 C           2.0000   -1.6256    0.0000 C.3     1  UNL1       -0.0474
     18 C           6.5251   -1.0699    0.0000 C.3     1  UNL1       -0.0553
     19 C           2.0084   -0.5406    0.0000 C.3     1  UNL1       -0.0523
     20 C           4.0412   -2.6044    0.0000 C.3     1  UNL1       -0.0588
     21 C           7.4191   -0.6045    0.0000 C.2     1  UNL1       -0.0836
     22 C           8.3252   -0.0907    0.0000 C.3     1  UNL1       -0.0302
     23 C           7.3940    2.5495    0.0000 C.3     1  UNL1       -0.0401
     24 C           9.2689    1.4862    0.0000 C.3     1  UNL1        0.0270
     25 C           2.4430   -3.0360    0.0000 C.3     1  UNL1       -0.0593
     26 C           3.2853   -3.1064    0.0000 C.3     1  UNL1       -0.0593
     27 C           6.5492    1.9581    0.0000 C.3     1  UNL1       -0.0587
     28 C           8.3252    3.1064    0.0000 C.3     1  UNL1        0.0069
     29 C           9.2689    2.5712    0.0000 C.2     1  UNL1        0.1392
     30 C          10.2689    1.4823    0.0000 C.3     1  UNL1       -0.0528
     31 C           9.7656    0.6182    0.0000 C.3     1  UNL1       -0.0528
     32 H           4.6142   -1.0102    0.0000 H       1  UNL1        0.0312
     33 H           7.2645    0.5108    0.0000 H       1  UNL1        0.0351
     34 H           5.8932   -2.1918    0.0000 H       1  UNL1        0.0274
     35 H           6.2843   -1.4959    0.0000 H       1  UNL1        0.0274
     36 H           4.5810    1.5127    0.0000 H       1  UNL1        0.0271
     37 H           4.1825    0.8225    0.0000 H       1  UNL1        0.0271
     38 H           4.3798   -2.6151    0.0000 H       1  UNL1        0.0271
     39 H           5.1781   -2.6120    0.0000 H       1  UNL1        0.0271
     40 H           6.0576    1.9051    0.0000 H       1  UNL1        0.0271
     41 H           5.2606    1.9051    0.0000 H       1  UNL1        0.0271
     42 H           3.3645    0.4540    0.0000 H       1  UNL1        0.0268
     43 H           2.5663    0.4694    0.0000 H       1  UNL1        0.0268
     44 H           9.0596    0.5231    0.0000 H       1  UNL1        0.0318
     45 H           4.2371    0.9671    0.0000 H       1  UNL1        0.0235
     46 H           3.3901    0.7401    0.0000 H       1  UNL1        0.0235
     47 H           3.6171   -0.1068    0.0000 H       1  UNL1        0.0235
     48 H           1.3900   -1.5148    0.0000 H       1  UNL1        0.0271
     49 H           1.7864   -2.2076    0.0000 H       1  UNL1        0.0271
     50 H           6.2151   -1.6068    0.0000 H       1  UNL1        0.0238
     51 H           7.0621   -1.3799    0.0000 H       1  UNL1        0.0238
     52 H           6.8351   -0.5329    0.0000 H       1  UNL1        0.0238
     53 H           1.8038    0.0447    0.0000 H       1  UNL1        0.0266
     54 H           1.3967   -0.6420    0.0000 H       1  UNL1        0.0266
     55 H           3.4298   -2.7074    0.0000 H       1  UNL1        0.0235
     56 H           4.1442   -3.2158    0.0000 H       1  UNL1        0.0235
     57 H           4.6526   -2.5014    0.0000 H       1  UNL1        0.0235
     58 H           7.4119   -1.2245    0.0000 H       1  UNL1        0.0572
     59 H           8.5342   -0.6744    0.0000 H       1  UNL1        0.0311
     60 H           8.9360    0.0154    0.0000 H       1  UNL1        0.0311
     61 H           7.1715    3.1282    0.0000 H       1  UNL1        0.0275
     62 H           6.7858    2.4293    0.0000 H       1  UNL1        0.0275
     63 H           2.7035   -3.3207    0.0000 H       1  UNL1        0.0235
     64 H           3.4996   -3.6882    0.0000 H       1  UNL1        0.0235
     65 H           3.8671   -2.8921    0.0000 H       1  UNL1        0.0235
     66 H           1.9048   -2.7281    0.0000 H       1  UNL1        0.0235
     67 H           2.1350   -3.5741    0.0000 H       1  UNL1        0.0235
     68 H           2.9811   -3.3439    0.0000 H       1  UNL1        0.0235
     69 H           6.8551    2.4974    0.0000 H       1  UNL1        0.0235
     70 H           6.0099    2.2640    0.0000 H       1  UNL1        0.0235
     71 H           6.2434    1.4188    0.0000 H       1  UNL1        0.0235
     72 H           8.7188    3.5854    0.0000 H       1  UNL1        0.0342
     73 H           7.9206    3.5762    0.0000 H       1  UNL1        0.0342
     74 H          10.2665    0.8623    0.0000 H       1  UNL1        0.0239
     75 H           9.2275    0.3103    0.0000 H       1  UNL1        0.0239
     76 H          10.0735    0.0801    0.0000 H       1  UNL1        0.0239
     77 H          10.3037    0.9262    0.0000 H       1  UNL1        0.0239
     78 H          10.8889    1.4799    0.0000 H       1  UNL1        0.0239
     79 H          10.2713    2.1023    0.0000 H       1  UNL1        0.0239
@<TRIPOS>BOND
     1     1    29    2
     2     2     3    1
     3     2     4    1
     4     2     9    1
     5     2    16    1
     6     3     7    1
     7     3     8    1
     8     3    18    1
     9     4     5    1
    10     4    14    1
    11     4    32    1
    12     5    10    1
    13     5    11    1
    14     5    20    1
    15     6     8    1
    16     6    12    1
    17     6    13    1
    18     6    33    1
    19     7    11    1
    20     7    34    1
    21     7    35    1
    22     8    21    2
    23     9    13    1
    24     9    36    1
    25     9    37    1
    26    10    17    1
    27    10    25    1
    28    10    26    1
    29    11    38    1
    30    11    39    1
    31    12    15    1
    32    12    23    1
    33    12    27    1
    34    13    40    1
    35    13    41    1
    36    14    19    1
    37    14    42    1
    38    14    43    1
    39    15    22    1
    40    15    24    1
    41    15    44    1
    42    16    45    1
    43    16    46    1
    44    16    47    1
    45    17    19    1
    46    17    48    1
    47    17    49    1
    48    18    50    1
    49    18    51    1
    50    18    52    1
    51    19    53    1
    52    19    54    1
    53    20    55    1
    54    20    56    1
    55    20    57    1
    56    21    22    1
    57    21    58    1
    58    22    59    1
    59    22    60    1
    60    23    28    1
    61    23    61    1
    62    23    62    1
    63    24    29    1
    64    24    30    1
    65    24    31    1
    66    25    66    1
    67    25    67    1
    68    25    68    1
    69    26    63    1
    70    26    64    1
    71    26    65    1
    72    27    69    1
    73    27    70    1
    74    27    71    1
    75    28    29    1
    76    28    72    1
    77    28    73    1
    78    30    74    1
    79    30    78    1
    80    30    79    1
    81    31    75    1
    82    31    76    1
    83    31    77    1
