@<TRIPOS>MOLECULE
IMPHY015506
 30 30 0 0 0
SMALL
GASTEIGER

@<TRIPOS>ATOM
      1 O           3.7320   -0.2500    0.0000 O.3     1  UNL1       -0.4599
      2 O           2.8660    1.2500    0.0000 O.2     1  UNL1       -0.2508
      3 C           4.5981    2.2500    0.0000 C.3     1  UNL1       -0.0432
      4 C           5.4641    2.7500    0.0000 C.3     1  UNL1       -0.0554
      5 C           4.5981    1.2500    0.0000 C.3     1  UNL1        0.0449
      6 C           5.4641    3.7500    0.0000 C.3     1  UNL1       -0.0653
      7 C           3.7320    0.7500    0.0000 C.2     1  UNL1        0.3074
      8 C           2.8660   -0.7500    0.0000 C.3     1  UNL1        0.1175
      9 C           2.8660   -1.7500    0.0000 C.ar    1  UNL1       -0.0103
     10 C           2.0000   -2.2500    0.0000 C.ar    1  UNL1       -0.0554
     11 C           3.7320   -2.2500    0.0000 C.ar    1  UNL1       -0.0554
     12 C           2.0000   -3.2500    0.0000 C.ar    1  UNL1       -0.0614
     13 C           3.7320   -3.2500    0.0000 C.ar    1  UNL1       -0.0614
     14 C           2.8660   -3.7500    0.0000 C.ar    1  UNL1       -0.0617
     15 H           4.3860    2.8326    0.0000 H       1  UNL1        0.0270
     16 H           3.9875    2.1423    0.0000 H       1  UNL1        0.0270
     17 H           4.8101    0.6674    0.0000 H       1  UNL1        0.0377
     18 H           5.2087    1.3577    0.0000 H       1  UNL1        0.0377
     19 H           5.6762    2.1674    0.0000 H       1  UNL1        0.0263
     20 H           6.0747    2.8577    0.0000 H       1  UNL1        0.0263
     21 H           6.0841    3.7500    0.0000 H       1  UNL1        0.0230
     22 H           5.4641    4.3700    0.0000 H       1  UNL1        0.0230
     23 H           4.8441    3.7500    0.0000 H       1  UNL1        0.0230
     24 H           2.6540   -0.1674    0.0000 H       1  UNL1        0.0749
     25 H           2.2554   -0.8577    0.0000 H       1  UNL1        0.0749
     26 H           1.4631   -1.9400    0.0000 H       1  UNL1        0.0621
     27 H           4.2690   -1.9400    0.0000 H       1  UNL1        0.0621
     28 H           1.4631   -3.5600    0.0000 H       1  UNL1        0.0618
     29 H           4.2690   -3.5600    0.0000 H       1  UNL1        0.0618
     30 H           2.8660   -4.3700    0.0000 H       1  UNL1        0.0618
@<TRIPOS>BOND
     1     1     7    1
     2     1     8    1
     3     2     7    2
     4     3     4    1
     5     3     5    1
     6     3    15    1
     7     3    16    1
     8     4     6    1
     9     4    19    1
    10     4    20    1
    11     5     7    1
    12     5    17    1
    13     5    18    1
    14     6    21    1
    15     6    22    1
    16     6    23    1
    17     8     9    1
    18     8    24    1
    19     8    25    1
    20     9    10   ar
    21     9    11   ar
    22    10    12   ar
    23    10    26    1
    24    11    13   ar
    25    11    27    1
    26    12    14   ar
    27    12    28    1
    28    13    14   ar
    29    13    29    1
    30    14    30    1
