@<TRIPOS>MOLECULE
IMPHY000637
 92 96 0 0 0
SMALL
GASTEIGER

@<TRIPOS>ATOM
      1 O          10.5929   -1.0226    0.0000 O.3     1  UNL1       -0.3914
      2 O          11.1673    0.4863    0.0000 O.3     1  UNL1       -0.3854
      3 O          12.3105    2.0538    0.0000 O.3     1  UNL1       -0.3713
      4 O           2.5357   -2.5508    0.0000 O.3     1  UNL1       -0.3912
      5 C           7.9288   -0.4985    0.0000 C.3     1  UNL1       -0.0207
      6 C           7.0628   -0.9985    0.0000 C.3     1  UNL1       -0.0230
      7 C           7.9288    0.5015    0.0000 C.3     1  UNL1       -0.0292
      8 C           8.8228    1.0362    0.0000 C.3     1  UNL1       -0.0208
      9 C           6.1968   -0.4985    0.0000 C.3     1  UNL1       -0.0294
     10 C           5.2868   -1.0053    0.0000 C.3     1  UNL1       -0.0252
     11 C           9.7288    0.5223    0.0000 C.3     1  UNL1        0.0222
     12 C           8.8228   -1.0331    0.0000 C.3     1  UNL1       -0.0203
     13 C           5.2787   -2.0469    0.0000 C.3     1  UNL1       -0.0278
     14 C           7.0628    1.0015    0.0000 C.3     1  UNL1       -0.0489
     15 C           6.1968    0.5015    0.0000 C.3     1  UNL1       -0.0489
     16 C           7.0789   -2.0400    0.0000 C.3     1  UNL1       -0.0466
     17 C           9.7288   -0.5193    0.0000 C.3     1  UNL1        0.0618
     18 C          10.4911    1.2231    0.0000 C.3     1  UNL1        0.1000
     19 C           9.0329    2.0501    0.0000 C.3     1  UNL1       -0.0442
     20 C           6.1808   -2.5677    0.0000 C.3     1  UNL1       -0.0486
     21 C          10.0619    2.1654    0.0000 C.3     1  UNL1       -0.0204
     22 C           8.2709   -1.4381    0.0000 C.3     1  UNL1       -0.0587
     23 C           4.3433   -2.5966    0.0000 C.3     1  UNL1       -0.0056
     24 C           7.7056   -1.7645    0.0000 C.3     1  UNL1       -0.0588
     25 C           4.3599   -0.4412    0.0000 C.3     1  UNL1       -0.0447
     26 C           7.9529    1.5295    0.0000 C.3     1  UNL1       -0.0589
     27 C           5.2945   -0.0053    0.0000 C.3     1  UNL1       -0.0590
     28 C          11.4008    1.6384    0.0000 C.3     1  UNL1        0.0928
     29 C           3.4037   -2.0541    0.0000 C.3     1  UNL1        0.0606
     30 C           3.4120   -0.9692    0.0000 C.3     1  UNL1       -0.0258
     31 C           3.8467   -3.4646    0.0000 C.3     1  UNL1       -0.0572
     32 C           4.8466   -3.4607    0.0000 C.3     1  UNL1       -0.0572
     33 C          10.9855    2.5481    0.0000 C.3     1  UNL1       -0.0334
     34 C          11.8162    0.7288    0.0000 C.3     1  UNL1       -0.0334
     35 C          12.4056    3.0492    0.0000 C.3     1  UNL1        0.0457
     36 C          13.3153    3.4646    0.0000 C.3     1  UNL1       -0.0415
     37 H           8.6682    0.0822    0.0000 H       1  UNL1        0.0312
     38 H           6.9329   -0.0735    0.0000 H       1  UNL1        0.0312
     39 H          10.5071    0.1806    0.0000 H       1  UNL1        0.0360
     40 H           8.4182   -1.5029    0.0000 H       1  UNL1        0.0296
     41 H           9.2164   -1.5122    0.0000 H       1  UNL1        0.0296
     42 H           5.2820   -2.8969    0.0000 H       1  UNL1        0.0312
     43 H           7.4613    1.4765    0.0000 H       1  UNL1        0.0268
     44 H           6.6643    1.4765    0.0000 H       1  UNL1        0.0268
     45 H           5.9847    1.0841    0.0000 H       1  UNL1        0.0268
     46 H           5.5862    0.3939    0.0000 H       1  UNL1        0.0268
     47 H           7.2969   -2.6204    0.0000 H       1  UNL1        0.0271
     48 H           7.6880   -1.9245    0.0000 H       1  UNL1        0.0271
     49 H          10.2664   -0.2103    0.0000 H       1  UNL1        0.0597
     50 H           9.0290    2.6701    0.0000 H       1  UNL1        0.0272
     51 H           8.4159    2.1114    0.0000 H       1  UNL1        0.0272
     52 H           5.7835   -3.0437    0.0000 H       1  UNL1        0.0268
     53 H           6.5818   -3.0406    0.0000 H       1  UNL1        0.0268
     54 H          10.6500    2.3617    0.0000 H       1  UNL1        0.0294
     55 H           9.9285    2.7709    0.0000 H       1  UNL1        0.0294
     56 H           7.6884   -1.6502    0.0000 H       1  UNL1        0.0235
     57 H           8.4830   -2.0207    0.0000 H       1  UNL1        0.0235
     58 H           8.8535   -1.2260    0.0000 H       1  UNL1        0.0235
     59 H           7.2306   -2.1630    0.0000 H       1  UNL1        0.0235
     60 H           8.1041   -2.2395    0.0000 H       1  UNL1        0.0235
     61 H           8.1805   -1.3660    0.0000 H       1  UNL1        0.0235
     62 H           4.7681    0.0254    0.0000 H       1  UNL1        0.0271
     63 H           3.9700    0.0408    0.0000 H       1  UNL1        0.0271
     64 H           8.2588    2.0688    0.0000 H       1  UNL1        0.0235
     65 H           7.4136    1.8354    0.0000 H       1  UNL1        0.0235
     66 H           7.6471    0.9902    0.0000 H       1  UNL1        0.0235
     67 H           5.9145   -0.0101    0.0000 H       1  UNL1        0.0235
     68 H           5.2993    0.6146    0.0000 H       1  UNL1        0.0235
     69 H           4.6745   -0.0006    0.0000 H       1  UNL1        0.0235
     70 H           3.4025   -2.6741    0.0000 H       1  UNL1        0.0599
     71 H           3.2075   -0.3839    0.0000 H       1  UNL1        0.0290
     72 H           2.8004   -1.0706    0.0000 H       1  UNL1        0.0290
     73 H           4.3109   -3.7728    0.0000 H       1  UNL1        0.0236
     74 H           3.3085   -3.1567    0.0000 H       1  UNL1        0.0236
     75 H           3.5387   -4.0027    0.0000 H       1  UNL1        0.0236
     76 H           4.3848   -3.7725    0.0000 H       1  UNL1        0.0236
     77 H           5.1587   -3.9965    0.0000 H       1  UNL1        0.0236
     78 H           5.3824   -3.1487    0.0000 H       1  UNL1        0.0236
     79 H          10.5905   -1.6426    0.0000 H       1  UNL1        0.2098
     80 H          10.9812   -0.1051    0.0000 H       1  UNL1        0.2103
     81 H          11.2522    0.4713    0.0000 H       1  UNL1        0.0258
     82 H          12.0737    0.1648    0.0000 H       1  UNL1        0.0258
     83 H          11.5495    2.8056    0.0000 H       1  UNL1        0.0258
     84 H          10.7280    3.1121    0.0000 H       1  UNL1        0.0258
     85 H          10.4215    2.2906    0.0000 H       1  UNL1        0.0258
     86 H          12.3801    0.9863    0.0000 H       1  UNL1        0.0258
     87 H           2.0000   -2.2387    0.0000 H       1  UNL1        0.2098
     88 H          12.2500    3.6494    0.0000 H       1  UNL1        0.0557
     89 H          11.7876    3.0002    0.0000 H       1  UNL1        0.0557
     90 H          13.5728    2.9006    0.0000 H       1  UNL1        0.0252
     91 H          13.8793    3.7221    0.0000 H       1  UNL1        0.0252
     92 H          13.0578    4.0286    0.0000 H       1  UNL1        0.0252
@<TRIPOS>BOND
     1    17     1    1
     2     1    79    1
     3     2    18    1
     4     2    80    1
     5     3    28    1
     6     3    35    1
     7    29     4    1
     8     4    87    1
     9     5     6    1
    10     5     7    1
    11     5    12    1
    12     5    22    1
    13     6     9    1
    14     6    16    1
    15     6    24    1
    16     7     8    1
    17     7    14    1
    18     7    37    1
    19     8    11    1
    20     8    19    1
    21     8    26    1
    22     9    10    1
    23     9    15    1
    24     9    38    1
    25    10    13    1
    26    10    25    1
    27    10    27    1
    28    11    17    1
    29    11    18    1
    30    11    39    1
    31    12    17    1
    32    12    40    1
    33    12    41    1
    34    13    20    1
    35    13    23    1
    36    13    42    1
    37    14    15    1
    38    14    43    1
    39    14    44    1
    40    15    45    1
    41    15    46    1
    42    16    20    1
    43    16    47    1
    44    16    48    1
    45    17    49    1
    46    18    21    1
    47    18    28    1
    48    19    21    1
    49    19    50    1
    50    19    51    1
    51    20    52    1
    52    20    53    1
    53    21    54    1
    54    21    55    1
    55    22    56    1
    56    22    57    1
    57    22    58    1
    58    23    29    1
    59    23    31    1
    60    23    32    1
    61    24    59    1
    62    24    60    1
    63    24    61    1
    64    25    30    1
    65    25    62    1
    66    25    63    1
    67    26    64    1
    68    26    65    1
    69    26    66    1
    70    27    67    1
    71    27    68    1
    72    27    69    1
    73    28    33    1
    74    28    34    1
    75    29    30    1
    76    29    70    1
    77    30    71    1
    78    30    72    1
    79    31    74    1
    80    31    75    1
    81    31    76    1
    82    32    73    1
    83    32    77    1
    84    32    78    1
    85    33    83    1
    86    33    84    1
    87    33    85    1
    88    34    81    1
    89    34    82    1
    90    34    86    1
    91    35    36    1
    92    35    88    1
    93    35    89    1
    94    36    90    1
    95    36    91    1
    96    36    92    1
