@<TRIPOS>MOLECULE
IMPHY006816
 101 108 0 0 0
SMALL
GASTEIGER

@<TRIPOS>ATOM
      1 O           3.4817    0.9683    0.0000 O.3     1  UNL1       -0.3815
      2 O           3.0404    1.8064    0.0000 O.3     1  UNL1       -0.3851
      3 O           4.5580    0.6375    0.0000 O.3     1  UNL1       -0.3765
      4 O           6.3806    4.3994    0.0000 O.3     1  UNL1       -0.3791
      5 O           2.6642    4.1478    0.0000 O.3     1  UNL1       -0.4608
      6 O           2.2630    4.8573    0.0000 O.3     1  UNL1       -0.3793
      7 O           7.2466    0.1642    0.0000 O.3     1  UNL1       -0.4605
      8 O           1.6672    2.7315    0.0000 O.2     1  UNL1       -0.2512
      9 O           6.3806   -1.3358    0.0000 O.2     1  UNL1       -0.2449
     10 O           9.3292   -4.1394    0.0000 O.2     1  UNL1       -0.2745
     11 O           6.0214   -2.9354    0.0000 O.2     1  UNL1       -0.2748
     12 N           7.5760    2.5703    0.0000 N.3     1  UNL1       -0.2955
     13 N           7.7706   -3.2755    0.0000 N.am    1  UNL1       -0.2094
     14 C           5.6293    2.9656    0.0000 C.3     1  UNL1        0.0245
     15 C           5.6293    2.0980    0.0000 C.3     1  UNL1        0.0078
     16 C           6.6312    2.8595    0.0000 C.3     1  UNL1        0.0529
     17 C           4.9510    3.5065    0.0000 C.3     1  UNL1       -0.0218
     18 C           4.1052    1.7501    0.0000 C.3     1  UNL1        0.1371
     19 C           4.1052    3.3134    0.0000 C.3     1  UNL1        0.0317
     20 C           3.7287    2.5318    0.0000 C.3     1  UNL1        0.1073
     21 C           4.9510    1.5571    0.0000 C.3     1  UNL1        0.0953
     22 C           6.3806    1.6642    0.0000 C.3     1  UNL1        0.0236
     23 C           6.3806    3.3994    0.0000 C.3     1  UNL1        0.0661
     24 C           5.0287    4.3706    0.0000 C.3     1  UNL1       -0.0405
     25 C           4.2310    4.7116    0.0000 C.3     1  UNL1        0.0231
     26 C           3.6602    4.0582    0.0000 C.3     1  UNL1        0.1140
     27 C           3.0838    2.8017    0.0000 C.3     1  UNL1        0.0060
     28 C           7.5760    1.8184    0.0000 C.3     1  UNL1        0.0084
     29 C           7.1320    2.0980    0.0000 C.3     1  UNL1       -0.0404
     30 C           3.0838    4.2862    0.0000 C.3     1  UNL1        0.0672
     31 C           7.1320    2.9656    0.0000 C.3     1  UNL1       -0.0254
     32 C           6.3806    0.6642    0.0000 C.3     1  UNL1        0.0999
     33 C           8.3799    3.1650    0.0000 C.3     1  UNL1       -0.0035
     34 C           5.1578   -0.1626    0.0000 C.3     1  UNL1        0.0369
     35 C           9.2969    2.7661    0.0000 C.3     1  UNL1       -0.0523
     36 C           7.2466    4.8994    0.0000 C.3     1  UNL1        0.0368
     37 C           1.7568    3.7275    0.0000 C.2     1  UNL1        0.3042
     38 C           2.3471    5.8538    0.0000 C.3     1  UNL1        0.0368
     39 C           7.2466   -0.8358    0.0000 C.2     1  UNL1        0.3410
     40 C           0.9391    4.3031    0.0000 C.3     1  UNL1        0.0332
     41 C           8.1127   -1.3358    0.0000 C.ar    1  UNL1        0.0807
     42 C           8.1127   -2.3358    0.0000 C.ar    1  UNL1        0.0578
     43 C           8.9787   -0.8358    0.0000 C.ar    1  UNL1       -0.0459
     44 C           8.9787   -2.8358    0.0000 C.ar    1  UNL1       -0.0390
     45 C           9.8447   -1.3358    0.0000 C.ar    1  UNL1       -0.0609
     46 C           9.8447   -2.3358    0.0000 C.ar    1  UNL1       -0.0599
     47 C           8.3298   -4.1045    0.0000 C.2     1  UNL1        0.2295
     48 C           6.8094   -3.5511    0.0000 C.2     1  UNL1        0.2269
     49 C           7.7142   -4.8925    0.0000 C.3     1  UNL1        0.0419
     50 C           6.7745   -4.5505    0.0000 C.3     1  UNL1        0.0357
     51 C           7.9898   -5.8538    0.0000 C.3     1  UNL1       -0.0536
     52 H           5.6928    1.2504    0.0000 H       1  UNL1        0.0340
     53 H           6.9432    3.6502    0.0000 H       1  UNL1        0.0499
     54 H           5.7326    3.8406    0.0000 H       1  UNL1        0.0312
     55 H           3.2560    3.2753    0.0000 H       1  UNL1        0.0368
     56 H           5.1514    0.9704    0.0000 H       1  UNL1        0.0629
     57 H           5.8437    3.7094    0.0000 H       1  UNL1        0.0602
     58 H           5.2115    4.9630    0.0000 H       1  UNL1        0.0273
     59 H           5.6371    4.2508    0.0000 H       1  UNL1        0.0273
     60 H           4.2518    5.5613    0.0000 H       1  UNL1        0.0362
     61 H           3.4294    4.6336    0.0000 H       1  UNL1        0.0741
     62 H           2.9219    2.2032    0.0000 H       1  UNL1        0.0319
     63 H           2.4692    2.8834    0.0000 H       1  UNL1        0.0319
     64 H           8.1954    1.8450    0.0000 H       1  UNL1        0.0433
     65 H           7.6289    1.2007    0.0000 H       1  UNL1        0.0433
     66 H           7.7425    2.2057    0.0000 H       1  UNL1        0.0273
     67 H           7.3440    1.5154    0.0000 H       1  UNL1        0.0273
     68 H           3.1620    4.9013    0.0000 H       1  UNL1        0.0601
     69 H           7.3440    3.5482    0.0000 H       1  UNL1        0.0290
     70 H           7.7425    2.8579    0.0000 H       1  UNL1        0.0290
     71 H           6.1686    0.0816    0.0000 H       1  UNL1        0.0704
     72 H           5.7700    0.7719    0.0000 H       1  UNL1        0.0704
     73 H           3.7082    0.3912    0.0000 H       1  UNL1        0.2105
     74 H           2.4459    1.6303    0.0000 H       1  UNL1        0.2103
     75 H           7.9303    3.5919    0.0000 H       1  UNL1        0.0424
     76 H           8.7222    3.6820    0.0000 H       1  UNL1        0.0424
     77 H           5.6539    0.2093    0.0000 H       1  UNL1        0.0524
     78 H           5.5297   -0.6587    0.0000 H       1  UNL1        0.0524
     79 H           4.6617   -0.5345    0.0000 H       1  UNL1        0.0524
     80 H           9.5442    3.3346    0.0000 H       1  UNL1        0.0242
     81 H           9.8654    2.5188    0.0000 H       1  UNL1        0.0242
     82 H           9.0496    2.1976    0.0000 H       1  UNL1        0.0242
     83 H           6.9366    5.4363    0.0000 H       1  UNL1        0.0524
     84 H           7.7836    5.2094    0.0000 H       1  UNL1        0.0524
     85 H           7.5566    4.3624    0.0000 H       1  UNL1        0.0524
     86 H           1.7293    5.9060    0.0000 H       1  UNL1        0.0524
     87 H           2.3993    6.4716    0.0000 H       1  UNL1        0.0524
     88 H           2.9649    5.8016    0.0000 H       1  UNL1        0.0524
     89 H           0.5822    3.7961    0.0000 H       1  UNL1        0.0342
     90 H           0.4321    4.6600    0.0000 H       1  UNL1        0.0342
     91 H           1.2960    4.8101    0.0000 H       1  UNL1        0.0342
     92 H           8.9787   -0.2158    0.0000 H       1  UNL1        0.0626
     93 H           8.9787   -3.4558    0.0000 H       1  UNL1        0.0636
     94 H          10.3817   -1.0258    0.0000 H       1  UNL1        0.0618
     95 H          10.3817   -2.6458    0.0000 H       1  UNL1        0.0618
     96 H           7.2607   -5.3154    0.0000 H       1  UNL1        0.0396
     97 H           6.6245   -5.1521    0.0000 H       1  UNL1        0.0366
     98 H           6.1605   -4.4642    0.0000 H       1  UNL1        0.0366
     99 H           8.5858   -5.6829    0.0000 H       1  UNL1        0.0237
    100 H           8.1607   -6.4498    0.0000 H       1  UNL1        0.0237
    101 H           7.3938   -6.0247    0.0000 H       1  UNL1        0.0237
@<TRIPOS>BOND
     1    18     1    1
     2     1    73    1
     3    20     2    1
     4     2    74    1
     5    21     3    1
     6     3    34    1
     7    23     4    1
     8     4    36    1
     9    26     5    1
    10     5    37    1
    11    30     6    1
    12     6    38    1
    13     7    32    1
    14     7    39    1
    15     8    37    2
    16     9    39    2
    17    10    47    2
    18    11    48    2
    19    12    16    1
    20    12    28    1
    21    12    33    1
    22    13    42    1
    23    13    47   am
    24    13    48   am
    25    14    15    1
    26    14    16    1
    27    14    17    1
    28    14    23    1
    29    15    21    1
    30    15    22    1
    31    15    52    1
    32    16    18    1
    33    16    53    1
    34    17    19    1
    35    17    24    1
    36    17    54    1
    37    18    20    1
    38    18    21    1
    39    19    20    1
    40    19    26    1
    41    19    55    1
    42    20    27    1
    43    21    56    1
    44    22    28    1
    45    22    29    1
    46    22    32    1
    47    23    31    1
    48    23    57    1
    49    24    25    1
    50    24    58    1
    51    24    59    1
    52    25    26    1
    53    25    30    1
    54    25    60    1
    55    26    61    1
    56    27    30    1
    57    27    62    1
    58    27    63    1
    59    28    64    1
    60    28    65    1
    61    29    31    1
    62    29    66    1
    63    29    67    1
    64    30    68    1
    65    31    69    1
    66    31    70    1
    67    32    71    1
    68    32    72    1
    69    33    35    1
    70    33    75    1
    71    33    76    1
    72    34    77    1
    73    34    78    1
    74    34    79    1
    75    35    80    1
    76    35    81    1
    77    35    82    1
    78    36    83    1
    79    36    84    1
    80    36    85    1
    81    37    40    1
    82    38    86    1
    83    38    87    1
    84    38    88    1
    85    39    41    1
    86    40    89    1
    87    40    90    1
    88    40    91    1
    89    41    42   ar
    90    41    43   ar
    91    42    44   ar
    92    43    45   ar
    93    43    92    1
    94    44    46   ar
    95    44    93    1
    96    45    46   ar
    97    45    94    1
    98    46    95    1
    99    47    49    1
   100    48    50    1
   101    49    50    1
   102    49    51    1
   103    49    96    1
   104    50    97    1
   105    50    98    1
   106    51    99    1
   107    51   100    1
   108    51   101    1
