@<TRIPOS>MOLECULE
IMPHY015561
 34 34 0 0 0
SMALL
GASTEIGER

@<TRIPOS>ATOM
      1 O           3.7320    0.0000    0.0000 O.3     1  UNL1       -0.4641
      2 O           4.5981   -1.5000    0.0000 O.2     1  UNL1       -0.2505
      3 C           4.5981    1.5000    0.0000 C.3     1  UNL1       -0.0003
      4 C           4.5981    0.5000    0.0000 C.3     1  UNL1        0.0959
      5 C           2.8660   -1.5000    0.0000 C.3     1  UNL1        0.0700
      6 C           2.8660   -2.5000    0.0000 C.ar    1  UNL1       -0.0368
      7 C           5.4641    2.0000    0.0000 C.2     1  UNL1       -0.0847
      8 C           3.7320   -1.0000    0.0000 C.2     1  UNL1        0.3115
      9 C           4.5981    3.5000    0.0000 C.3     1  UNL1       -0.0376
     10 C           5.4641    3.0000    0.0000 C.2     1  UNL1       -0.0881
     11 C           2.0000   -3.0000    0.0000 C.ar    1  UNL1       -0.0581
     12 C           3.7320   -3.0000    0.0000 C.ar    1  UNL1       -0.0581
     13 C           2.0000   -4.0000    0.0000 C.ar    1  UNL1       -0.0615
     14 C           3.7320   -4.0000    0.0000 C.ar    1  UNL1       -0.0615
     15 C           4.5981    4.5000    0.0000 C.3     1  UNL1       -0.0618
     16 C           2.8660   -4.5000    0.0000 C.ar    1  UNL1       -0.0617
     17 H           4.3860    2.0826    0.0000 H       1  UNL1        0.0340
     18 H           3.9875    1.3923    0.0000 H       1  UNL1        0.0340
     19 H           4.8101   -0.0826    0.0000 H       1  UNL1        0.0700
     20 H           5.2087    0.6077    0.0000 H       1  UNL1        0.0700
     21 H           2.6540   -0.9174    0.0000 H       1  UNL1        0.0426
     22 H           2.2554   -1.6077    0.0000 H       1  UNL1        0.0426
     23 H           6.0010    1.6900    0.0000 H       1  UNL1        0.0570
     24 H           3.9875    3.6077    0.0000 H       1  UNL1        0.0305
     25 H           4.3860    2.9174    0.0000 H       1  UNL1        0.0305
     26 H           6.0010    3.3100    0.0000 H       1  UNL1        0.0569
     27 H           1.4631   -2.6900    0.0000 H       1  UNL1        0.0620
     28 H           4.2690   -2.6900    0.0000 H       1  UNL1        0.0620
     29 H           1.4631   -4.3100    0.0000 H       1  UNL1        0.0618
     30 H           4.2690   -4.3100    0.0000 H       1  UNL1        0.0618
     31 H           5.2181    4.5000    0.0000 H       1  UNL1        0.0233
     32 H           4.5981    5.1200    0.0000 H       1  UNL1        0.0233
     33 H           3.9781    4.5000    0.0000 H       1  UNL1        0.0233
     34 H           2.8660   -5.1200    0.0000 H       1  UNL1        0.0618
@<TRIPOS>BOND
     1     1     4    1
     2     1     8    1
     3     2     8    2
     4     3     4    1
     5     3     7    1
     6     3    17    1
     7     3    18    1
     8     4    19    1
     9     4    20    1
    10     5     6    1
    11     5     8    1
    12     5    21    1
    13     5    22    1
    14     6    11   ar
    15     6    12   ar
    16     7    10    2
    17     7    23    1
    18     9    10    1
    19     9    15    1
    20     9    24    1
    21     9    25    1
    22    10    26    1
    23    11    13   ar
    24    11    27    1
    25    12    14   ar
    26    12    28    1
    27    13    16   ar
    28    13    29    1
    29    14    16   ar
    30    14    30    1
    31    15    31    1
    32    15    32    1
    33    15    33    1
    34    16    34    1
