@<TRIPOS>MOLECULE
IMPHY014802
 38 38 0 0 0
SMALL
GASTEIGER

@<TRIPOS>ATOM
      1 O           4.5981    0.4400    0.0000 O.2     1  UNL1       -0.2879
      2 C           2.8660    0.4400    0.0000 C.3     1  UNL1       -0.0160
      3 C           2.0000   -0.0600    0.0000 C.3     1  UNL1       -0.0425
      4 C           3.7320   -0.0600    0.0000 C.3     1  UNL1       -0.0280
      5 C           2.0000   -1.0600    0.0000 C.3     1  UNL1       -0.0315
      6 C           2.8660   -1.5600    0.0000 C.2     1  UNL1       -0.0765
      7 C           2.8660    1.4400    0.0000 C.2     1  UNL1       -0.0656
      8 C           3.7320   -1.0600    0.0000 C.2     1  UNL1       -0.0845
      9 C           2.8660   -2.5600    0.0000 C.3     1  UNL1       -0.0438
     10 C           2.0000    1.9400    0.0000 C.3     1  UNL1       -0.0431
     11 C           3.7320    1.9400    0.0000 C.2     1  UNL1       -0.0157
     12 C           4.5981    1.4400    0.0000 C.2     1  UNL1        0.1789
     13 C           5.4641    1.9400    0.0000 C.2     1  UNL1       -0.0162
     14 C           6.3301    1.4400    0.0000 C.2     1  UNL1       -0.0721
     15 C           7.1962    1.9400    0.0000 C.3     1  UNL1       -0.0436
     16 C           6.3301    0.4400    0.0000 C.3     1  UNL1       -0.0436
     17 H           3.4030    0.7500    0.0000 H       1  UNL1        0.0349
     18 H           1.7880    0.5226    0.0000 H       1  UNL1        0.0274
     19 H           1.3894   -0.1677    0.0000 H       1  UNL1        0.0274
     20 H           4.3426   -0.1677    0.0000 H       1  UNL1        0.0313
     21 H           3.9441    0.5226    0.0000 H       1  UNL1        0.0313
     22 H           1.3894   -0.9523    0.0000 H       1  UNL1        0.0310
     23 H           1.7880   -1.6426    0.0000 H       1  UNL1        0.0310
     24 H           4.2690   -1.3700    0.0000 H       1  UNL1        0.0572
     25 H           2.2460   -2.5600    0.0000 H       1  UNL1        0.0274
     26 H           2.8660   -3.1800    0.0000 H       1  UNL1        0.0274
     27 H           3.4860   -2.5600    0.0000 H       1  UNL1        0.0274
     28 H           2.3100    2.4769    0.0000 H       1  UNL1        0.0275
     29 H           1.4631    2.2500    0.0000 H       1  UNL1        0.0275
     30 H           1.6900    1.4031    0.0000 H       1  UNL1        0.0275
     31 H           3.7320    2.5600    0.0000 H       1  UNL1        0.0655
     32 H           5.4641    2.5600    0.0000 H       1  UNL1        0.0655
     33 H           7.5062    1.4031    0.0000 H       1  UNL1        0.0274
     34 H           7.7331    2.2500    0.0000 H       1  UNL1        0.0274
     35 H           6.8862    2.4769    0.0000 H       1  UNL1        0.0274
     36 H           5.7101    0.4400    0.0000 H       1  UNL1        0.0274
     37 H           6.3301   -0.1800    0.0000 H       1  UNL1        0.0274
     38 H           6.9501    0.4400    0.0000 H       1  UNL1        0.0274
@<TRIPOS>BOND
     1     1    12    2
     2     2     3    1
     3     2     4    1
     4     2     7    1
     5     2    17    1
     6     3     5    1
     7     3    18    1
     8     3    19    1
     9     4     8    1
    10     4    20    1
    11     4    21    1
    12     5     6    1
    13     5    22    1
    14     5    23    1
    15     6     8    2
    16     6     9    1
    17     7    10    1
    18     7    11    2
    19     8    24    1
    20     9    25    1
    21     9    26    1
    22     9    27    1
    23    10    28    1
    24    10    29    1
    25    10    30    1
    26    11    12    1
    27    11    31    1
    28    12    13    1
    29    13    14    2
    30    13    32    1
    31    14    15    1
    32    14    16    1
    33    15    33    1
    34    15    34    1
    35    15    35    1
    36    16    36    1
    37    16    37    1
    38    16    38    1
