@<TRIPOS>MOLECULE
IMPHY012791
 77 78 0 0 0
SMALL
GASTEIGER

@<TRIPOS>ATOM
      1 O           2.8660    1.0110    0.0000 O.3     1  UNL1       -0.4862
      2 O           3.7226    0.4943    0.0000 O.2     1  UNL1       -0.2736
      3 O           6.9641    0.6449    0.0000 O.2     1  UNL1       -0.2741
      4 O           3.7118   -2.4522    0.0000 O.2     1  UNL1       -0.2734
      5 N           5.4641    1.5110    0.0000 N.am    1  UNL1       -0.2997
      6 N           5.4641   -0.4890    0.0000 N.am    1  UNL1       -0.3023
      7 N           6.4641    3.2430    0.0000 N.3     1  UNL1       -0.3085
      8 N           4.5981   -2.9890    0.0000 N.am    1  UNL1       -0.2904
      9 C           3.7320    1.5110    0.0000 C.3     1  UNL1        0.1292
     10 C           4.5981    1.0110    0.0000 C.3     1  UNL1        0.1368
     11 C           3.7320    2.5110    0.0000 C.3     1  UNL1       -0.0073
     12 C           6.9641    2.3770    0.0000 C.3     1  UNL1        0.0871
     13 C           7.9641    2.3770    0.0000 C.3     1  UNL1       -0.0202
     14 C           4.5981    0.0110    0.0000 C.2     1  UNL1        0.2376
     15 C           5.4641   -1.4890    0.0000 C.3     1  UNL1        0.0999
     16 C           6.4641    1.5110    0.0000 C.2     1  UNL1        0.2310
     17 C           6.3301   -1.9890    0.0000 C.3     1  UNL1       -0.0236
     18 C           8.4641    3.2430    0.0000 C.3     1  UNL1       -0.0514
     19 C           2.8660    3.0110    0.0000 C.3     1  UNL1       -0.0592
     20 C           4.5981    3.0110    0.0000 C.3     1  UNL1       -0.0592
     21 C           7.1962   -1.4890    0.0000 C.3     1  UNL1       -0.0446
     22 C           8.4641    1.5110    0.0000 C.3     1  UNL1       -0.0606
     23 C           4.5981   -1.9890    0.0000 C.2     1  UNL1        0.2371
     24 C           9.4641    3.2430    0.0000 C.3     1  UNL1       -0.0650
     25 C           2.8660    0.0110    0.0000 C.ar    1  UNL1        0.1211
     26 C           8.0622   -1.9890    0.0000 C.3     1  UNL1       -0.0626
     27 C           7.1962   -0.4890    0.0000 C.3     1  UNL1       -0.0626
     28 C           6.9641    4.1090    0.0000 C.3     1  UNL1       -0.0151
     29 C           3.7320   -0.4890    0.0000 C.ar    1  UNL1       -0.0194
     30 C           2.0000   -0.4890    0.0000 C.ar    1  UNL1       -0.0194
     31 C           2.8660   -1.9890    0.0000 C.ar    1  UNL1       -0.0236
     32 C           3.7320   -1.4890    0.0000 C.ar    1  UNL1       -0.0511
     33 C           2.0000   -1.4890    0.0000 C.ar    1  UNL1       -0.0511
     34 C           3.7320   -3.4890    0.0000 C.2     1  UNL1       -0.0031
     35 C           2.8660   -2.9890    0.0000 C.2     1  UNL1       -0.0407
     36 H           3.1951    1.8210    0.0000 H       1  UNL1        0.0759
     37 H           5.1350    0.7010    0.0000 H       1  UNL1        0.0632
     38 H           4.2690    2.2010    0.0000 H       1  UNL1        0.0332
     39 H           6.3441    2.3770    0.0000 H       1  UNL1        0.0559
     40 H           8.5841    2.3770    0.0000 H       1  UNL1        0.0318
     41 H           5.4641    2.1310    0.0000 H       1  UNL1        0.1496
     42 H           6.0010   -1.1790    0.0000 H       1  UNL1        0.0595
     43 H           5.9316   -2.4640    0.0000 H       1  UNL1        0.0290
     44 H           6.7287   -2.4640    0.0000 H       1  UNL1        0.0290
     45 H           8.5718    3.8536    0.0000 H       1  UNL1        0.0266
     46 H           7.8815    3.4551    0.0000 H       1  UNL1        0.0266
     47 H           6.0010   -0.1790    0.0000 H       1  UNL1        0.1495
     48 H           3.1760    3.5479    0.0000 H       1  UNL1        0.0233
     49 H           2.3291    3.3210    0.0000 H       1  UNL1        0.0233
     50 H           2.5560    2.4740    0.0000 H       1  UNL1        0.0233
     51 H           4.9081    2.4740    0.0000 H       1  UNL1        0.0233
     52 H           5.1350    3.3210    0.0000 H       1  UNL1        0.0233
     53 H           4.2881    3.5479    0.0000 H       1  UNL1        0.0233
     54 H           6.6592   -1.1790    0.0000 H       1  UNL1        0.0296
     55 H           7.9272    1.2010    0.0000 H       1  UNL1        0.0233
     56 H           8.7741    0.9740    0.0000 H       1  UNL1        0.0233
     57 H           9.0010    1.8210    0.0000 H       1  UNL1        0.0233
     58 H           5.8441    3.2430    0.0000 H       1  UNL1        0.1223
     59 H           9.4641    2.6230    0.0000 H       1  UNL1        0.0230
     60 H          10.0841    3.2430    0.0000 H       1  UNL1        0.0230
     61 H           9.4641    3.8630    0.0000 H       1  UNL1        0.0230
     62 H           7.7522   -2.5260    0.0000 H       1  UNL1        0.0232
     63 H           8.5991   -2.2990    0.0000 H       1  UNL1        0.0232
     64 H           8.3722   -1.4521    0.0000 H       1  UNL1        0.0232
     65 H           7.8162   -0.4890    0.0000 H       1  UNL1        0.0232
     66 H           7.1962    0.1310    0.0000 H       1  UNL1        0.0232
     67 H           6.5762   -0.4890    0.0000 H       1  UNL1        0.0232
     68 H           7.5010    3.7990    0.0000 H       1  UNL1        0.0388
     69 H           7.2741    4.6460    0.0000 H       1  UNL1        0.0388
     70 H           6.4272    4.4190    0.0000 H       1  UNL1        0.0388
     71 H           5.1350   -3.2990    0.0000 H       1  UNL1        0.1543
     72 H           4.2690   -0.1790    0.0000 H       1  UNL1        0.0654
     73 H           1.4631   -0.1790    0.0000 H       1  UNL1        0.0654
     74 H           4.2690   -1.7990    0.0000 H       1  UNL1        0.0625
     75 H           1.4631   -1.7990    0.0000 H       1  UNL1        0.0625
     76 H           3.7320   -4.1090    0.0000 H       1  UNL1        0.0782
     77 H           2.3291   -3.2990    0.0000 H       1  UNL1        0.0636
@<TRIPOS>BOND
     1     1     9    1
     2     1    25    1
     3     2    14    2
     4     3    16    2
     5     4    23    2
     6     5    10    1
     7     5    16   am
     8     5    41    1
     9     6    14   am
    10     6    15    1
    11     6    47    1
    12     7    12    1
    13     7    28    1
    14     7    58    1
    15     8    23   am
    16     8    34    1
    17     8    71    1
    18     9    10    1
    19     9    11    1
    20     9    36    1
    21    10    14    1
    22    10    37    1
    23    11    19    1
    24    11    20    1
    25    11    38    1
    26    12    13    1
    27    12    16    1
    28    12    39    1
    29    13    18    1
    30    13    22    1
    31    13    40    1
    32    15    17    1
    33    15    23    1
    34    15    42    1
    35    17    21    1
    36    17    43    1
    37    17    44    1
    38    18    24    1
    39    18    45    1
    40    18    46    1
    41    19    48    1
    42    19    49    1
    43    19    50    1
    44    20    51    1
    45    20    52    1
    46    20    53    1
    47    21    26    1
    48    21    27    1
    49    21    54    1
    50    22    55    1
    51    22    56    1
    52    22    57    1
    53    24    59    1
    54    24    60    1
    55    24    61    1
    56    25    29   ar
    57    25    30   ar
    58    26    62    1
    59    26    63    1
    60    26    64    1
    61    27    65    1
    62    27    66    1
    63    27    67    1
    64    28    68    1
    65    28    69    1
    66    28    70    1
    67    29    32   ar
    68    29    72    1
    69    30    33   ar
    70    30    73    1
    71    31    32   ar
    72    31    33   ar
    73    31    35    1
    74    32    74    1
    75    33    75    1
    76    34    35    2
    77    34    76    1
    78    35    77    1
