@<TRIPOS>MOLECULE
IMPHY017853
 47 51 0 0 0
SMALL
GASTEIGER

@<TRIPOS>ATOM
      1 O           6.3549    1.4204    0.0000 O.3     1  UNL1       -0.3646
      2 O           2.2596    1.2157    0.0000 O.3     1  UNL1       -0.4564
      3 O           4.6224    3.4204    0.0000 O.3     1  UNL1       -0.3880
      4 O           2.3473    2.9711    0.0000 O.2     1  UNL1       -0.2501
      5 O           4.6717   -2.7763    0.0000 O.3     1  UNL1       -0.4532
      6 O           6.4788   -2.7165    0.0000 O.2     1  UNL1       -0.2456
      7 C           4.6224    0.4204    0.0000 C.3     1  UNL1        0.0298
      8 C           3.7564    0.9204    0.0000 C.3     1  UNL1        0.0296
      9 C           5.4884    0.9204    0.0000 C.3     1  UNL1        0.0975
     10 C           3.7564    1.9204    0.0000 C.3     1  UNL1        0.1005
     11 C           5.4884    1.9204    0.0000 C.3     1  UNL1        0.1129
     12 C           4.6224    2.4204    0.0000 C.3     1  UNL1        0.0996
     13 C           2.8464    0.4136    0.0000 C.3     1  UNL1        0.1267
     14 C           4.6384   -0.6211    0.0000 C.2     1  UNL1       -0.0253
     15 C           5.4884   -0.0796    0.0000 C.3     1  UNL1       -0.0526
     16 C           2.7733    2.0664    0.0000 C.2     1  UNL1        0.3166
     17 C           3.7564    2.9204    0.0000 C.3     1  UNL1       -0.0465
     18 C           3.7404   -1.1488    0.0000 C.2     1  UNL1       -0.0035
     19 C           2.8383   -0.6280    0.0000 C.2     1  UNL1       -0.0367
     20 C           3.7320   -2.2338    0.0000 C.3     1  UNL1        0.1307
     21 C           5.5904   -1.1417    0.0000 C.2     1  UNL1        0.0267
     22 C           2.8641   -2.7304    0.0000 C.3     1  UNL1       -0.0052
     23 C           5.6071   -2.2266    0.0000 C.2     1  UNL1        0.3328
     24 C           2.8602   -3.7304    0.0000 C.3     1  UNL1       -0.0590
     25 C           2.0000   -2.2271    0.0000 C.3     1  UNL1       -0.0590
     26 H           3.7564    0.0704    0.0000 H       1  UNL1        0.0361
     27 H           5.7983    0.3835    0.0000 H       1  UNL1        0.0632
     28 H           5.7983    2.4574    0.0000 H       1  UNL1        0.0649
     29 H           5.1593    2.7304    0.0000 H       1  UNL1        0.0631
     30 H           2.0374    0.1527    0.0000 H       1  UNL1        0.0783
     31 H           5.1784   -0.6165    0.0000 H       1  UNL1        0.0239
     32 H           6.0253   -0.3896    0.0000 H       1  UNL1        0.0239
     33 H           5.7984    0.4574    0.0000 H       1  UNL1        0.0239
     34 H           4.3764    2.9204    0.0000 H       1  UNL1        0.0241
     35 H           3.7564    3.5404    0.0000 H       1  UNL1        0.0241
     36 H           3.1364    2.9204    0.0000 H       1  UNL1        0.0241
     37 H           2.3002   -0.9359    0.0000 H       1  UNL1        0.0612
     38 H           5.1593    3.7304    0.0000 H       1  UNL1        0.2099
     39 H           3.7308   -2.8538    0.0000 H       1  UNL1        0.0788
     40 H           6.1212   -0.8214    0.0000 H       1  UNL1        0.0692
     41 H           2.3260   -3.0384    0.0000 H       1  UNL1        0.0334
     42 H           2.2402   -3.7280    0.0000 H       1  UNL1        0.0234
     43 H           2.8578   -4.3504    0.0000 H       1  UNL1        0.0234
     44 H           3.4802   -3.7328    0.0000 H       1  UNL1        0.0234
     45 H           2.3121   -1.6914    0.0000 H       1  UNL1        0.0234
     46 H           1.4643   -1.9150    0.0000 H       1  UNL1        0.0234
     47 H           1.6879   -2.7628    0.0000 H       1  UNL1        0.0234
@<TRIPOS>BOND
     1     1     9    1
     2     1    11    1
     3     2    13    1
     4     2    16    1
     5    12     3    1
     6     3    38    1
     7     4    16    2
     8     5    20    1
     9     5    23    1
    10     6    23    2
    11     7     8    1
    12     7     9    1
    13     7    14    1
    14     7    15    1
    15     8    10    1
    16     8    13    1
    17     8    26    1
    18     9    11    1
    19     9    27    1
    20    10    12    1
    21    10    16    1
    22    10    17    1
    23    11    12    1
    24    11    28    1
    25    12    29    1
    26    13    19    1
    27    13    30    1
    28    14    18    1
    29    14    21    2
    30    15    31    1
    31    15    32    1
    32    15    33    1
    33    17    34    1
    34    17    35    1
    35    17    36    1
    36    18    19    2
    37    18    20    1
    38    19    37    1
    39    20    22    1
    40    20    39    1
    41    21    23    1
    42    21    40    1
    43    22    24    1
    44    22    25    1
    45    22    41    1
    46    24    42    1
    47    24    43    1
    48    24    44    1
    49    25    45    1
    50    25    46    1
    51    25    47    1
