@<TRIPOS>MOLECULE
IMPHY001635
 50 52 0 0 0
SMALL
GASTEIGER

@<TRIPOS>ATOM
      1 O           4.5981    3.2872    0.0000 O.3     1  UNL1       -0.4910
      2 O           2.8660    2.2872    0.0000 O.3     1  UNL1       -0.4885
      3 O           2.8660    0.2872    0.0000 O.3     1  UNL1       -0.4913
      4 O           9.7872   -2.7873    0.0000 O.3     1  UNL1       -0.4951
      5 N           7.2641    0.7664    0.0000 N.3     1  UNL1       -0.3087
      6 C           6.3580    0.2526    0.0000 C.3     1  UNL1        0.0373
      7 C           5.4641    0.7872    0.0000 C.ar    1  UNL1       -0.0198
      8 C           5.4641    1.7872    0.0000 C.ar    1  UNL1        0.0040
      9 C           6.3580    2.3219    0.0000 C.3     1  UNL1       -0.0112
     10 C           7.2641    1.8080    0.0000 C.3     1  UNL1        0.0006
     11 C           6.3465   -0.7474    0.0000 C.3     1  UNL1       -0.0081
     12 C           4.5981    2.2872    0.0000 C.ar    1  UNL1        0.1687
     13 C           4.5981    0.2872    0.0000 C.ar    1  UNL1       -0.0111
     14 C           7.2067   -1.2574    0.0000 C.ar    1  UNL1       -0.0453
     15 C           3.7320    1.7872    0.0000 C.ar    1  UNL1        0.2038
     16 C           3.7320    0.7872    0.0000 C.ar    1  UNL1        0.1655
     17 C           7.1951   -2.2573    0.0000 C.ar    1  UNL1       -0.0551
     18 C           8.0784   -0.7674    0.0000 C.ar    1  UNL1       -0.0551
     19 C           8.0553   -2.7673    0.0000 C.ar    1  UNL1       -0.0197
     20 C           8.9386   -1.2774    0.0000 C.ar    1  UNL1       -0.0197
     21 C           8.9270   -2.2773    0.0000 C.ar    1  UNL1        0.1201
     22 C           3.7320    3.7872    0.0000 C.3     1  UNL1        0.0790
     23 C           2.0000    1.7872    0.0000 C.3     1  UNL1        0.0791
     24 C           2.8660   -0.7128    0.0000 C.3     1  UNL1        0.0790
     25 C           9.7757   -3.7872    0.0000 C.3     1  UNL1        0.0788
     26 H           6.8920   -0.0626    0.0000 H       1  UNL1        0.0513
     27 H           6.7517    2.8009    0.0000 H       1  UNL1        0.0327
     28 H           5.9534    2.7917    0.0000 H       1  UNL1        0.0327
     29 H           7.8750    1.7020    0.0000 H       1  UNL1        0.0427
     30 H           7.4732    2.3917    0.0000 H       1  UNL1        0.0427
     31 H           7.7998    0.4543    0.0000 H       1  UNL1        0.1225
     32 H           5.7372   -0.6327    0.0000 H       1  UNL1        0.0332
     33 H           6.1277   -1.3275    0.0000 H       1  UNL1        0.0332
     34 H           4.5981   -0.3328    0.0000 H       1  UNL1        0.0659
     35 H           6.6546   -2.5610    0.0000 H       1  UNL1        0.0621
     36 H           8.0856   -0.1474    0.0000 H       1  UNL1        0.0621
     37 H           8.0481   -3.3872    0.0000 H       1  UNL1        0.0654
     38 H           9.4791   -0.9736    0.0000 H       1  UNL1        0.0654
     39 H           4.0420    4.3242    0.0000 H       1  UNL1        0.0660
     40 H           3.1951    4.0972    0.0000 H       1  UNL1        0.0660
     41 H           3.4220    3.2503    0.0000 H       1  UNL1        0.0660
     42 H           1.6900    2.3242    0.0000 H       1  UNL1        0.0660
     43 H           1.4631    1.4772    0.0000 H       1  UNL1        0.0660
     44 H           2.3100    1.2503    0.0000 H       1  UNL1        0.0660
     45 H           2.2460   -0.7128    0.0000 H       1  UNL1        0.0660
     46 H           2.8660   -1.3328    0.0000 H       1  UNL1        0.0660
     47 H           3.4860   -0.7128    0.0000 H       1  UNL1        0.0660
     48 H           9.1557   -3.7801    0.0000 H       1  UNL1        0.0660
     49 H           9.7685   -4.4072    0.0000 H       1  UNL1        0.0660
     50 H          10.3956   -3.7944    0.0000 H       1  UNL1        0.0660
@<TRIPOS>BOND
     1     1    12    1
     2     1    22    1
     3     2    15    1
     4     2    23    1
     5     3    16    1
     6     3    24    1
     7     4    21    1
     8     4    25    1
     9     5     6    1
    10     5    10    1
    11     5    31    1
    12     6     7    1
    13     6    11    1
    14     6    26    1
    15     7     8   ar
    16     7    13   ar
    17     8     9    1
    18     8    12   ar
    19     9    10    1
    20     9    27    1
    21     9    28    1
    22    10    29    1
    23    10    30    1
    24    11    14    1
    25    11    32    1
    26    11    33    1
    27    12    15   ar
    28    13    16   ar
    29    13    34    1
    30    14    17   ar
    31    14    18   ar
    32    15    16   ar
    33    17    19   ar
    34    17    35    1
    35    18    20   ar
    36    18    36    1
    37    19    21   ar
    38    19    37    1
    39    20    21   ar
    40    20    38    1
    41    22    39    1
    42    22    40    1
    43    22    41    1
    44    23    42    1
    45    23    43    1
    46    23    44    1
    47    24    45    1
    48    24    46    1
    49    24    47    1
    50    25    48    1
    51    25    49    1
    52    25    50    1
