@<TRIPOS>MOLECULE
IMPHY017572
 30 31 0 0 0
SMALL
GASTEIGER

@<TRIPOS>ATOM
      1 O           3.7742   -1.8378    0.0000 O.3     1  UNL1       -0.3860
      2 O           2.4750   -0.7376    0.0000 O.3     1  UNL1       -0.3889
      3 C           5.4647   -0.0891    0.0000 C.3     1  UNL1       -0.0043
      4 C           6.8636   -0.0803    0.0000 C.3     1  UNL1       -0.0265
      5 C           5.7235    0.8768    0.0000 C.3     1  UNL1       -0.0328
      6 C           4.9869    1.8594    0.0000 C.3     1  UNL1       -0.0436
      7 C           4.2437   -0.9548    0.0000 C.3     1  UNL1        0.0923
      8 C           3.6903    0.5656    0.0000 C.3     1  UNL1       -0.0208
      9 C           3.4146   -0.3956    0.0000 C.3     1  UNL1        0.0841
     10 C           7.7297    0.4197    0.0000 C.3     1  UNL1       -0.0592
     11 C           7.3636   -0.9464    0.0000 C.3     1  UNL1       -0.0592
     12 C           4.7736   -1.8029    0.0000 C.3     1  UNL1       -0.0334
     13 H           5.6547   -0.6793    0.0000 H       1  UNL1        0.0335
     14 H           6.1738    1.3030    0.0000 H       1  UNL1        0.0307
     15 H           5.3047    2.3918    0.0000 H       1  UNL1        0.0272
     16 H           4.3738    1.9514    0.0000 H       1  UNL1        0.0272
     17 H           3.6852    1.1856    0.0000 H       1  UNL1        0.0294
     18 H           3.0760    0.6494    0.0000 H       1  UNL1        0.0294
     19 H           3.3391   -1.0110    0.0000 H       1  UNL1        0.0622
     20 H           8.0397   -0.1173    0.0000 H       1  UNL1        0.0235
     21 H           8.2666    0.7297    0.0000 H       1  UNL1        0.0235
     22 H           7.4197    0.9566    0.0000 H       1  UNL1        0.0235
     23 H           6.8267   -1.2564    0.0000 H       1  UNL1        0.0235
     24 H           7.6736   -1.4833    0.0000 H       1  UNL1        0.0235
     25 H           7.9006   -0.6364    0.0000 H       1  UNL1        0.0235
     26 H           4.2478   -2.1314    0.0000 H       1  UNL1        0.0258
     27 H           5.1022   -2.3286    0.0000 H       1  UNL1        0.0258
     28 H           5.2994   -1.4743    0.0000 H       1  UNL1        0.0258
     29 H           3.1546   -1.8594    0.0000 H       1  UNL1        0.2103
     30 H           2.0000   -0.3391    0.0000 H       1  UNL1        0.2099
@<TRIPOS>BOND
     1     1     7    1
     2     1    29    1
     3     2     9    1
     4     2    30    1
     5     3     4    1
     6     3     6    1
     7     3     7    1
     8     3    13    1
     9     4     5    1
    10     4    10    1
    11     4    11    1
    12     5     6    1
    13     5     8    1
    14     5    14    1
    15     6    15    1
    16     6    16    1
    17     7     9    1
    18     7    12    1
    19     8     9    1
    20     8    17    1
    21     8    18    1
    22     9    19    1
    23    10    20    1
    24    10    21    1
    25    10    22    1
    26    11    23    1
    27    11    24    1
    28    11    25    1
    29    12    26    1
    30    12    27    1
    31    12    28    1
