@<TRIPOS>MOLECULE
IMPHY007407
 60 65 0 0 0
SMALL
GASTEIGER

@<TRIPOS>ATOM
      1 O          10.4205    0.4653    0.0000 O.3     1  UNL1       -0.4822
      2 O           6.9006   -0.4653    0.0000 O.2     1  UNL1       -0.4537
      3 O          10.4089    3.5346    0.0000 O.2     1  UNL1       -0.2917
      4 O           8.6605    3.5000    0.0000 O.3     1  UNL1       -0.5058
      5 O           6.9285    0.5000    0.0000 O.3     1  UNL1       -0.5059
      6 O          10.3926   -0.5000    0.0000 O.3     1  UNL1       -0.5059
      7 O           8.6605   -3.5000    0.0000 O.3     1  UNL1       -0.5058
      8 O           6.9121   -3.5346    0.0000 O.2     1  UNL1       -0.2869
      9 O          14.7829   -1.0341    0.0000 O.3     1  UNL1       -0.5068
     10 O           2.5381    1.0341    0.0000 O.3     1  UNL1       -0.5068
     11 C          11.3266    0.9792    0.0000 C.3     1  UNL1        0.1322
     12 C          11.3266    2.0208    0.0000 C.3     1  UNL1        0.0520
     13 C           9.5266    1.0000    0.0000 C.ar    1  UNL1        0.1468
     14 C           9.5266    2.0000    0.0000 C.ar    1  UNL1        0.1013
     15 C           8.6605    0.5000    0.0000 C.ar    1  UNL1        0.0731
     16 C          10.4205    2.5347    0.0000 C.2     1  UNL1        0.1740
     17 C           8.6605   -0.5000    0.0000 C.ar    1  UNL1        0.0737
     18 C          12.1907    0.4758    0.0000 C.ar    1  UNL1       -0.0067
     19 C           8.6605    2.5000    0.0000 C.ar    1  UNL1        0.1344
     20 C           7.7945    1.0000    0.0000 C.ar    1  UNL1        0.1318
     21 C           7.7945   -1.0000    0.0000 C.ar    1  UNL1        0.1542
     22 C           7.7945    2.0000    0.0000 C.ar    1  UNL1        0.0229
     23 C           7.7945   -2.0000    0.0000 C.ar    1  UNL1        0.1061
     24 C           9.5266   -1.0000    0.0000 C.ar    1  UNL1        0.1318
     25 C          12.1868   -0.5241    0.0000 C.ar    1  UNL1       -0.0516
     26 C          13.0586    0.9725    0.0000 C.ar    1  UNL1       -0.0516
     27 C           8.6605   -2.5000    0.0000 C.ar    1  UNL1        0.1347
     28 C           9.5266   -2.0000    0.0000 C.ar    1  UNL1        0.0229
     29 C           6.9006   -2.5347    0.0000 C.ar    1  UNL1        0.1966
     30 C           5.9945   -0.9792    0.0000 C.ar    1  UNL1        0.1393
     31 C          13.0509   -1.0275    0.0000 C.ar    1  UNL1       -0.0198
     32 C          13.9227    0.4692    0.0000 C.ar    1  UNL1       -0.0198
     33 C           5.9945   -2.0208    0.0000 C.ar    1  UNL1        0.0288
     34 C          13.9188   -0.5308    0.0000 C.ar    1  UNL1        0.1169
     35 C           5.1304   -0.4758    0.0000 C.ar    1  UNL1        0.0176
     36 C           5.1343    0.5241    0.0000 C.ar    1  UNL1       -0.0476
     37 C           4.2625   -0.9725    0.0000 C.ar    1  UNL1       -0.0476
     38 C           4.2702    1.0275    0.0000 C.ar    1  UNL1       -0.0195
     39 C           3.3984   -0.4692    0.0000 C.ar    1  UNL1       -0.0195
     40 C           3.4022    0.5308    0.0000 C.ar    1  UNL1        0.1169
     41 H          11.3230    0.3592    0.0000 H       1  UNL1        0.0789
     42 H          11.9374    1.9147    0.0000 H       1  UNL1        0.0385
     43 H          11.5356    2.6045    0.0000 H       1  UNL1        0.0385
     44 H           7.2576    2.3100    0.0000 H       1  UNL1        0.0691
     45 H          11.6487   -0.8321    0.0000 H       1  UNL1        0.0623
     46 H          13.0610    1.5925    0.0000 H       1  UNL1        0.0623
     47 H          10.0635   -2.3100    0.0000 H       1  UNL1        0.0691
     48 H          13.0485   -1.6475    0.0000 H       1  UNL1        0.0654
     49 H          14.4608    0.7771    0.0000 H       1  UNL1        0.0654
     50 H           5.4588   -2.3329    0.0000 H       1  UNL1        0.0693
     51 H           8.1236    3.8100    0.0000 H       1  UNL1        0.2922
     52 H           6.3915    0.8100    0.0000 H       1  UNL1        0.2922
     53 H          10.9295   -0.8100    0.0000 H       1  UNL1        0.2922
     54 H           9.1975   -3.8100    0.0000 H       1  UNL1        0.2922
     55 H           5.6724    0.8321    0.0000 H       1  UNL1        0.0626
     56 H           4.2601   -1.5925    0.0000 H       1  UNL1        0.0626
     57 H           4.2726    1.6475    0.0000 H       1  UNL1        0.0654
     58 H           2.8602   -0.7771    0.0000 H       1  UNL1        0.0654
     59 H          15.3211   -0.7262    0.0000 H       1  UNL1        0.2921
     60 H           2.0000    0.7262    0.0000 H       1  UNL1        0.2921
@<TRIPOS>BOND
     1     1    11    1
     2     1    13    1
     3     2    21   ar
     4     2    30   ar
     5     3    16    2
     6     4    19    1
     7     4    51    1
     8     5    20    1
     9     5    52    1
    10     6    24    1
    11     6    53    1
    12     7    27    1
    13     7    54    1
    14     8    29    2
    15     9    34    1
    16     9    59    1
    17    10    40    1
    18    10    60    1
    19    11    12    1
    20    11    18    1
    21    11    41    1
    22    12    16    1
    23    12    42    1
    24    12    43    1
    25    13    14   ar
    26    13    15   ar
    27    14    16    1
    28    14    19   ar
    29    15    17    1
    30    15    20   ar
    31    17    21   ar
    32    17    24   ar
    33    18    25   ar
    34    18    26   ar
    35    19    22   ar
    36    20    22   ar
    37    21    23   ar
    38    22    44    1
    39    23    27   ar
    40    23    29   ar
    41    24    28   ar
    42    25    31   ar
    43    25    45    1
    44    26    32   ar
    45    26    46    1
    46    27    28   ar
    47    28    47    1
    48    29    33   ar
    49    30    33   ar
    50    30    35    1
    51    31    34   ar
    52    31    48    1
    53    32    34   ar
    54    32    49    1
    55    33    50    1
    56    35    36   ar
    57    35    37   ar
    58    36    38   ar
    59    36    55    1
    60    37    39   ar
    61    37    56    1
    62    38    40   ar
    63    38    57    1
    64    39    40   ar
    65    39    58    1
