@<TRIPOS>MOLECULE
IMPHY003811
 37 40 0 0 0
SMALL
GASTEIGER

@<TRIPOS>ATOM
      1 O           2.5381    2.9680    0.0000 O.3     1  UNL1       -0.3944
      2 N           5.2100    1.4644    0.0000 N.3     1  UNL1       -0.2975
      3 N           6.1981   -2.7258    0.0000 N.ar    1  UNL1       -0.3604
      4 C           5.1940    0.4229    0.0000 C.3     1  UNL1        0.0397
      5 C           4.3280   -0.0771    0.0000 C.2     1  UNL1       -0.0257
      6 C           6.0600   -0.0771    0.0000 C.3     1  UNL1       -0.0059
      7 C           3.4099    1.4713    0.0000 C.3     1  UNL1        0.0136
      8 C           4.3120    1.9921    0.0000 C.3     1  UNL1        0.0076
      9 C           6.0600   -1.0771    0.0000 C.ar    1  UNL1       -0.0200
     10 C           4.3280   -1.0771    0.0000 C.ar    1  UNL1       -0.0112
     11 C           5.1940   -1.5771    0.0000 C.ar    1  UNL1        0.0103
     12 C           3.4180    0.4297    0.0000 C.2     1  UNL1       -0.0723
     13 C           5.2100   -2.6186    0.0000 C.ar    1  UNL1        0.0473
     14 C           2.5420    1.9680    0.0000 C.3     1  UNL1        0.0516
     15 C           6.0818    1.9543    0.0000 C.3     1  UNL1       -0.0121
     16 C           6.6779   -1.8555    0.0000 C.ar    1  UNL1        0.0060
     17 C           3.4180   -1.5840    0.0000 C.ar    1  UNL1       -0.0536
     18 C           4.3120   -3.1464    0.0000 C.ar    1  UNL1       -0.0378
     19 C           3.4099   -2.6256    0.0000 C.ar    1  UNL1       -0.0592
     20 H           5.9334    0.8422    0.0000 H       1  UNL1        0.0515
     21 H           6.6706   -0.1848    0.0000 H       1  UNL1        0.0332
     22 H           6.2721    0.5055    0.0000 H       1  UNL1        0.0332
     23 H           3.4087    2.0913    0.0000 H       1  UNL1        0.0378
     24 H           4.7130    2.4650    0.0000 H       1  UNL1        0.0433
     25 H           3.9147    2.4681    0.0000 H       1  UNL1        0.0433
     26 H           2.8846    0.1135    0.0000 H       1  UNL1        0.0579
     27 H           1.9310    2.0733    0.0000 H       1  UNL1        0.0563
     28 H           2.3322    1.3845    0.0000 H       1  UNL1        0.0563
     29 H           6.3856    1.4138    0.0000 H       1  UNL1        0.0391
     30 H           6.6223    2.2581    0.0000 H       1  UNL1        0.0391
     31 H           5.7780    2.4948    0.0000 H       1  UNL1        0.0391
     32 H           7.2958   -1.8038    0.0000 H       1  UNL1        0.0810
     33 H           2.8846   -1.2678    0.0000 H       1  UNL1        0.0624
     34 H           6.4841   -3.2759    0.0000 H       1  UNL1        0.1653
     35 H           4.3144   -3.7664    0.0000 H       1  UNL1        0.0638
     36 H           2.8718   -2.9335    0.0000 H       1  UNL1        0.0618
     37 H           2.0000    3.2759    0.0000 H       1  UNL1        0.2094
@<TRIPOS>BOND
     1     1    14    1
     2     1    37    1
     3     2     4    1
     4     2     8    1
     5     2    15    1
     6     3    13   ar
     7     3    16   ar
     8     3    34    1
     9     4     5    1
    10     4     6    1
    11     4    20    1
    12     5    10    1
    13     5    12    2
    14     6     9    1
    15     6    21    1
    16     6    22    1
    17     7     8    1
    18     7    12    1
    19     7    14    1
    20     7    23    1
    21     8    24    1
    22     8    25    1
    23     9    11   ar
    24     9    16   ar
    25    10    11   ar
    26    10    17   ar
    27    11    13   ar
    28    12    26    1
    29    13    18   ar
    30    14    27    1
    31    14    28    1
    32    15    29    1
    33    15    30    1
    34    15    31    1
    35    16    32    1
    36    17    19   ar
    37    17    33    1
    38    18    19   ar
    39    18    35    1
    40    19    36    1
