@<TRIPOS>MOLECULE
IMPHY016142
 26 26 0 0 0
SMALL
GASTEIGER

@<TRIPOS>ATOM
      1 O           2.8660   -2.5000    0.0000 O.3     1  UNL1       -0.4951
      2 C           2.8660    1.5000    0.0000 C.3     1  UNL1       -0.0009
      3 C           2.8660    0.5000    0.0000 C.ar    1  UNL1       -0.0406
      4 C           2.0000    2.0000    0.0000 C.3     1  UNL1       -0.0549
      5 C           3.7320   -0.0000    0.0000 C.ar    1  UNL1       -0.0546
      6 C           2.0000    0.0000    0.0000 C.ar    1  UNL1       -0.0546
      7 C           3.7320    2.0000    0.0000 C.2     1  UNL1       -0.0840
      8 C           3.7320   -1.0000    0.0000 C.ar    1  UNL1       -0.0197
      9 C           2.0000   -1.0000    0.0000 C.ar    1  UNL1       -0.0197
     10 C           2.8660   -1.5000    0.0000 C.ar    1  UNL1        0.1201
     11 C           3.7320    3.0000    0.0000 C.2     1  UNL1       -0.1021
     12 C           2.0000   -3.0000    0.0000 C.3     1  UNL1        0.0788
     13 H           2.8660    2.1200    0.0000 H       1  UNL1        0.0388
     14 H           2.3100    2.5369    0.0000 H       1  UNL1        0.0239
     15 H           1.4631    2.3100    0.0000 H       1  UNL1        0.0239
     16 H           1.6900    1.4631    0.0000 H       1  UNL1        0.0239
     17 H           4.2690    0.3100    0.0000 H       1  UNL1        0.0622
     18 H           1.4631    0.3100    0.0000 H       1  UNL1        0.0622
     19 H           4.2690    1.6900    0.0000 H       1  UNL1        0.0572
     20 H           4.2690   -1.3100    0.0000 H       1  UNL1        0.0654
     21 H           1.4631   -1.3100    0.0000 H       1  UNL1        0.0654
     22 H           4.2690    3.3100    0.0000 H       1  UNL1        0.0532
     23 H           3.1951    3.3100    0.0000 H       1  UNL1        0.0532
     24 H           1.6900   -2.4631    0.0000 H       1  UNL1        0.0660
     25 H           1.4631   -3.3100    0.0000 H       1  UNL1        0.0660
     26 H           2.3100   -3.5369    0.0000 H       1  UNL1        0.0660
@<TRIPOS>BOND
     1     1    10    1
     2     1    12    1
     3     2     3    1
     4     2     4    1
     5     2     7    1
     6     2    13    1
     7     3     5   ar
     8     3     6   ar
     9     4    14    1
    10     4    15    1
    11     4    16    1
    12     5     8   ar
    13     5    17    1
    14     6     9   ar
    15     6    18    1
    16     7    11    2
    17     7    19    1
    18     8    10   ar
    19     8    20    1
    20     9    10   ar
    21     9    21    1
    22    11    22    1
    23    11    23    1
    24    12    24    1
    25    12    25    1
    26    12    26    1
