@<TRIPOS>MOLECULE
IMPHY007565
 60 61 0 0 0
SMALL
GASTEIGER

@<TRIPOS>ATOM
      1 O           5.4641   -5.0000    0.0000 O.3     1  UNL1       -0.3872
      2 O           6.3301   -1.5000    0.0000 O.3     1  UNL1       -0.4880
      3 O           8.9282    4.0000    0.0000 O.2     1  UNL1       -0.2702
      4 N           7.1962    4.0000    0.0000 N.am    1  UNL1       -0.3110
      5 C           4.5981   -4.5000    0.0000 C.3     1  UNL1        0.0795
      6 C           3.7320   -5.0000    0.0000 C.3     1  UNL1       -0.0045
      7 C           4.5981   -3.5000    0.0000 C.2     1  UNL1       -0.0450
      8 C           6.3301    2.5000    0.0000 C.3     1  UNL1       -0.0120
      9 C           6.3301    1.5000    0.0000 C.ar    1  UNL1       -0.0457
     10 C           7.1962    3.0000    0.0000 C.3     1  UNL1        0.0159
     11 C           5.4641   -3.0000    0.0000 C.2     1  UNL1       -0.0457
     12 C           3.7320   -6.0000    0.0000 C.2     1  UNL1       -0.0825
     13 C           5.4641   -2.0000    0.0000 C.3     1  UNL1        0.1081
     14 C           3.7320   -3.0000    0.0000 C.3     1  UNL1       -0.0413
     15 C           6.3301   -0.5000    0.0000 C.ar    1  UNL1        0.1210
     16 C           5.4641    1.0000    0.0000 C.ar    1  UNL1       -0.0551
     17 C           7.1962    1.0000    0.0000 C.ar    1  UNL1       -0.0551
     18 C           2.8660   -6.5000    0.0000 C.2     1  UNL1       -0.0795
     19 C           5.4641    0.0000    0.0000 C.ar    1  UNL1       -0.0197
     20 C           7.1962    0.0000    0.0000 C.ar    1  UNL1       -0.0197
     21 C           2.8660   -7.5000    0.0000 C.3     1  UNL1       -0.0440
     22 C           2.0000   -6.0000    0.0000 C.3     1  UNL1       -0.0440
     23 C           8.0622    4.5000    0.0000 C.2     1  UNL1        0.2441
     24 C           8.0622    5.5000    0.0000 C.ar    1  UNL1        0.0367
     25 C           8.9282    6.0000    0.0000 C.ar    1  UNL1       -0.0496
     26 C           7.1962    6.0000    0.0000 C.ar    1  UNL1       -0.0496
     27 C           8.9282    7.0000    0.0000 C.ar    1  UNL1       -0.0610
     28 C           7.1962    7.0000    0.0000 C.ar    1  UNL1       -0.0610
     29 C           8.0622    7.5000    0.0000 C.ar    1  UNL1       -0.0617
     30 H           4.5981   -5.1200    0.0000 H       1  UNL1        0.0643
     31 H           3.5200   -4.4174    0.0000 H       1  UNL1        0.0336
     32 H           3.1215   -5.1077    0.0000 H       1  UNL1        0.0336
     33 H           6.1181    3.0826    0.0000 H       1  UNL1        0.0328
     34 H           5.7196    2.3923    0.0000 H       1  UNL1        0.0328
     35 H           7.4082    2.4174    0.0000 H       1  UNL1        0.0465
     36 H           7.8067    3.1077    0.0000 H       1  UNL1        0.0465
     37 H           6.0010   -3.3100    0.0000 H       1  UNL1        0.0606
     38 H           4.2690   -6.3100    0.0000 H       1  UNL1        0.0572
     39 H           5.2520   -1.4174    0.0000 H       1  UNL1        0.0742
     40 H           4.8535   -2.1077    0.0000 H       1  UNL1        0.0742
     41 H           4.0420   -2.4631    0.0000 H       1  UNL1        0.0275
     42 H           3.1951   -2.6900    0.0000 H       1  UNL1        0.0275
     43 H           3.4220   -3.5369    0.0000 H       1  UNL1        0.0275
     44 H           4.9272    1.3100    0.0000 H       1  UNL1        0.0621
     45 H           7.7331    1.3100    0.0000 H       1  UNL1        0.0621
     46 H           4.9272   -0.3100    0.0000 H       1  UNL1        0.0654
     47 H           7.7331   -0.3100    0.0000 H       1  UNL1        0.0654
     48 H           6.6592    4.3100    0.0000 H       1  UNL1        0.1490
     49 H           5.4641   -5.6200    0.0000 H       1  UNL1        0.2102
     50 H           2.2460   -7.5000    0.0000 H       1  UNL1        0.0274
     51 H           2.3100   -5.4631    0.0000 H       1  UNL1        0.0274
     52 H           1.4631   -5.6900    0.0000 H       1  UNL1        0.0274
     53 H           1.6900   -6.5369    0.0000 H       1  UNL1        0.0274
     54 H           2.8660   -8.1200    0.0000 H       1  UNL1        0.0274
     55 H           3.4860   -7.5000    0.0000 H       1  UNL1        0.0274
     56 H           9.4651    5.6900    0.0000 H       1  UNL1        0.0625
     57 H           6.6592    5.6900    0.0000 H       1  UNL1        0.0625
     58 H           9.4651    7.3100    0.0000 H       1  UNL1        0.0618
     59 H           6.6592    7.3100    0.0000 H       1  UNL1        0.0618
     60 H           8.0622    8.1200    0.0000 H       1  UNL1        0.0618
@<TRIPOS>BOND
     1     1     5    1
     2     1    49    1
     3     2    13    1
     4     2    15    1
     5     3    23    2
     6     4    10    1
     7     4    23   am
     8     4    48    1
     9     5     6    1
    10     5     7    1
    11     5    30    1
    12     6    12    1
    13     6    31    1
    14     6    32    1
    15     7    11    2
    16     7    14    1
    17     8     9    1
    18     8    10    1
    19     8    33    1
    20     8    34    1
    21     9    16   ar
    22     9    17   ar
    23    10    35    1
    24    10    36    1
    25    11    13    1
    26    11    37    1
    27    12    18    2
    28    12    38    1
    29    13    39    1
    30    13    40    1
    31    14    41    1
    32    14    42    1
    33    14    43    1
    34    15    19   ar
    35    15    20   ar
    36    16    19   ar
    37    16    44    1
    38    17    20   ar
    39    17    45    1
    40    18    21    1
    41    18    22    1
    42    19    46    1
    43    20    47    1
    44    21    50    1
    45    21    54    1
    46    21    55    1
    47    22    51    1
    48    22    52    1
    49    22    53    1
    50    23    24    1
    51    24    25   ar
    52    24    26   ar
    53    25    27   ar
    54    25    56    1
    55    26    28   ar
    56    26    57    1
    57    27    29   ar
    58    27    58    1
    59    28    29   ar
    60    28    59    1
    61    29    60    1
