@<TRIPOS>MOLECULE
IMPHY005963
 94 99 0 0 0
SMALL
GASTEIGER

@<TRIPOS>ATOM
      1 O           6.0010   -4.2500    0.0000 O.3     1  UNL1       -0.3401
      2 O           6.0010   -1.2500    0.0000 O.3     1  UNL1       -0.3431
      3 O           4.2690   -4.2500    0.0000 O.3     1  UNL1       -0.3405
      4 O           7.7331   -1.2500    0.0000 O.3     1  UNL1       -0.3461
      5 O           8.5991    1.2500    0.0000 O.3     1  UNL1       -0.3313
      6 O           7.7331   -3.2500    0.0000 O.3     1  UNL1       -0.3841
      7 O           4.2690   -3.2500    0.0000 O.3     1  UNL1       -0.3866
      8 O           6.0010   -6.2500    0.0000 O.3     1  UNL1       -0.3841
      9 O           4.2690   -7.2500    0.0000 O.3     1  UNL1       -0.3864
     10 O           2.5369   -6.2500    0.0000 O.3     1  UNL1       -0.3865
     11 O           9.4651   -1.2500    0.0000 O.3     1  UNL1       -0.3865
     12 O          11.1972   -0.2500    0.0000 O.3     1  UNL1       -0.3864
     13 O           9.4651    2.7500    0.0000 O.3     1  UNL1       -0.4532
     14 O          11.1972    1.7500    0.0000 O.3     1  UNL1       -0.3829
     15 O           2.5369   -3.2500    0.0000 O.3     1  UNL1       -0.3924
     16 O           7.7331    4.7500    0.0000 O.2     1  UNL1       -0.4507
     17 O           7.7331    1.7500    0.0000 O.2     1  UNL1       -0.2830
     18 O           5.9847    1.7154    0.0000 O.3     1  UNL1       -0.5058
     19 O           4.2030    4.7742    0.0000 O.3     1  UNL1       -0.5065
     20 O          10.3312    7.2500    0.0000 O.3     1  UNL1       -0.5033
     21 O          12.0632    6.2500    0.0000 O.3     1  UNL1       -0.5033
     22 C           6.0010   -3.2500    0.0000 C.3     1  UNL1        0.1205
     23 C           6.8671   -2.7500    0.0000 C.3     1  UNL1        0.1345
     24 C           5.1350   -2.7500    0.0000 C.3     1  UNL1        0.1098
     25 C           6.8671   -1.7500    0.0000 C.3     1  UNL1        0.1879
     26 C           5.1350   -1.7500    0.0000 C.3     1  UNL1        0.0873
     27 C           5.1350   -4.7500    0.0000 C.3     1  UNL1        0.1884
     28 C           5.1350   -5.7500    0.0000 C.3     1  UNL1        0.1341
     29 C           4.2690   -6.2500    0.0000 C.3     1  UNL1        0.1141
     30 C           3.4030   -5.7500    0.0000 C.3     1  UNL1        0.1119
     31 C           8.5991    0.2500    0.0000 C.3     1  UNL1        0.1144
     32 C           3.4030   -4.7500    0.0000 C.3     1  UNL1        0.1130
     33 C           9.4651   -0.2500    0.0000 C.3     1  UNL1        0.1120
     34 C          10.3312    0.2500    0.0000 C.3     1  UNL1        0.1152
     35 C           7.7331   -0.2500    0.0000 C.3     1  UNL1        0.0796
     36 C          10.3312    1.2500    0.0000 C.3     1  UNL1        0.1454
     37 C           9.4651    1.7500    0.0000 C.3     1  UNL1        0.2311
     38 C           4.2690   -1.2500    0.0000 C.3     1  UNL1       -0.0361
     39 C           2.5369   -4.2500    0.0000 C.3     1  UNL1        0.0730
     40 C           8.5991    3.2500    0.0000 C.ar    1  UNL1        0.2138
     41 C           8.5991    4.2500    0.0000 C.ar    1  UNL1        0.1810
     42 C           7.7331    2.7500    0.0000 C.ar    1  UNL1        0.2382
     43 C           6.8671    3.2500    0.0000 C.ar    1  UNL1        0.1092
     44 C           9.4651    4.7500    0.0000 C.ar    1  UNL1        0.0247
     45 C           6.8671    4.2500    0.0000 C.ar    1  UNL1        0.1465
     46 C           5.9731    2.7153    0.0000 C.ar    1  UNL1        0.1348
     47 C           5.9731    4.7847    0.0000 C.ar    1  UNL1        0.0231
     48 C           9.4651    5.7500    0.0000 C.ar    1  UNL1       -0.0057
     49 C          10.3312    4.2500    0.0000 C.ar    1  UNL1       -0.0473
     50 C           5.0670    3.2292    0.0000 C.ar    1  UNL1        0.0223
     51 C           5.0670    4.2708    0.0000 C.ar    1  UNL1        0.1239
     52 C          10.3312    6.2500    0.0000 C.ar    1  UNL1        0.1589
     53 C          11.1972    4.7500    0.0000 C.ar    1  UNL1       -0.0159
     54 C          11.1972    5.7500    0.0000 C.ar    1  UNL1        0.1583
     55 H           6.5380   -3.5600    0.0000 H       1  UNL1        0.0651
     56 H           7.4040   -2.4400    0.0000 H       1  UNL1        0.0671
     57 H           4.5981   -2.4400    0.0000 H       1  UNL1        0.0646
     58 H           6.8671   -1.1300    0.0000 H       1  UNL1        0.0937
     59 H           5.1350   -1.1300    0.0000 H       1  UNL1        0.0621
     60 H           5.1350   -4.1300    0.0000 H       1  UNL1        0.0938
     61 H           5.1350   -6.3700    0.0000 H       1  UNL1        0.0671
     62 H           3.7320   -6.5600    0.0000 H       1  UNL1        0.0648
     63 H           2.8660   -5.4400    0.0000 H       1  UNL1        0.0647
     64 H           8.0622    0.5600    0.0000 H       1  UNL1        0.0647
     65 H           3.4030   -4.1300    0.0000 H       1  UNL1        0.0647
     66 H          10.0021   -0.5600    0.0000 H       1  UNL1        0.0647
     67 H          10.8681    0.5600    0.0000 H       1  UNL1        0.0648
     68 H           7.5210    0.3326    0.0000 H       1  UNL1        0.0587
     69 H           7.1225   -0.3577    0.0000 H       1  UNL1        0.0587
     70 H          10.3312    1.8700    0.0000 H       1  UNL1        0.0683
     71 H           8.9282    2.0600    0.0000 H       1  UNL1        0.1084
     72 H           4.5790   -0.7131    0.0000 H       1  UNL1        0.0255
     73 H           3.7320   -0.9400    0.0000 H       1  UNL1        0.0255
     74 H           3.9590   -1.7869    0.0000 H       1  UNL1        0.0255
     75 H           1.9264   -4.1423    0.0000 H       1  UNL1        0.0584
     76 H           2.3249   -4.8326    0.0000 H       1  UNL1        0.0584
     77 H           8.2700   -2.9400    0.0000 H       1  UNL1        0.2101
     78 H           3.7320   -2.9400    0.0000 H       1  UNL1        0.2100
     79 H           6.0010   -6.8700    0.0000 H       1  UNL1        0.2101
     80 H           3.7320   -7.5600    0.0000 H       1  UNL1        0.2100
     81 H           2.0000   -5.9400    0.0000 H       1  UNL1        0.2100
     82 H          10.0021   -1.5600    0.0000 H       1  UNL1        0.2100
     83 H          11.7341    0.0600    0.0000 H       1  UNL1        0.2100
     84 H          11.1972    2.3700    0.0000 H       1  UNL1        0.2102
     85 H           2.0000   -2.9400    0.0000 H       1  UNL1        0.2095
     86 H           5.9803    5.4046    0.0000 H       1  UNL1        0.0691
     87 H           8.9282    6.0600    0.0000 H       1  UNL1        0.0662
     88 H          10.3312    3.6300    0.0000 H       1  UNL1        0.0626
     89 H           4.5313    2.9171    0.0000 H       1  UNL1        0.0691
     90 H          11.7341    4.4400    0.0000 H       1  UNL1        0.0655
     91 H           5.4514    1.3992    0.0000 H       1  UNL1        0.2922
     92 H           3.6648    4.4662    0.0000 H       1  UNL1        0.2921
     93 H           9.7942    7.5600    0.0000 H       1  UNL1        0.2923
     94 H          12.6002    5.9400    0.0000 H       1  UNL1        0.2923
@<TRIPOS>BOND
     1    22     1    1
     2    27     1    1
     3     2    25    1
     4     2    26    1
     5     3    27    1
     6     3    32    1
     7    25     4    1
     8     4    35    1
     9     5    31    1
    10     5    37    1
    11    23     6    1
    12     6    77    1
    13    24     7    1
    14     7    78    1
    15    28     8    1
    16     8    79    1
    17    29     9    1
    18     9    80    1
    19    30    10    1
    20    10    81    1
    21    33    11    1
    22    11    82    1
    23    34    12    1
    24    12    83    1
    25    37    13    1
    26    13    40    1
    27    36    14    1
    28    14    84    1
    29    15    39    1
    30    15    85    1
    31    16    41   ar
    32    16    45   ar
    33    17    42    2
    34    18    46    1
    35    18    91    1
    36    19    51    1
    37    19    92    1
    38    20    52    1
    39    20    93    1
    40    21    54    1
    41    21    94    1
    42    22    23    1
    43    22    24    1
    44    22    55    1
    45    23    25    1
    46    23    56    1
    47    24    26    1
    48    24    57    1
    49    25    58    1
    50    26    38    1
    51    26    59    1
    52    27    28    1
    53    27    60    1
    54    28    29    1
    55    28    61    1
    56    29    30    1
    57    29    62    1
    58    30    32    1
    59    30    63    1
    60    31    33    1
    61    31    35    1
    62    31    64    1
    63    32    39    1
    64    32    65    1
    65    33    34    1
    66    33    66    1
    67    34    36    1
    68    34    67    1
    69    35    68    1
    70    35    69    1
    71    36    37    1
    72    36    70    1
    73    37    71    1
    74    38    72    1
    75    38    73    1
    76    38    74    1
    77    39    75    1
    78    39    76    1
    79    40    41   ar
    80    40    42   ar
    81    41    44    1
    82    42    43   ar
    83    43    45   ar
    84    43    46   ar
    85    44    48   ar
    86    44    49   ar
    87    45    47   ar
    88    46    50   ar
    89    47    51   ar
    90    47    86    1
    91    48    52   ar
    92    48    87    1
    93    49    53   ar
    94    49    88    1
    95    50    51   ar
    96    50    89    1
    97    52    54   ar
    98    53    54   ar
    99    53    90    1
