@<TRIPOS>MOLECULE
IMPHY014198
 41 42 0 0 0
SMALL
GASTEIGER

@<TRIPOS>ATOM
      1 O           6.3301    1.7500    0.0000 O.3     1  UNL1       -0.4541
      2 O           6.3301   -0.2500    0.0000 O.3     1  UNL1       -0.4536
      3 O           3.7320    0.2500    0.0000 O.3     1  UNL1       -0.4529
      4 O           7.1962    3.2500    0.0000 O.2     1  UNL1       -0.2456
      5 O           7.1962    1.2500    0.0000 O.2     1  UNL1       -0.2512
      6 O           2.8660   -1.2500    0.0000 O.2     1  UNL1       -0.2511
      7 C           5.4641    0.2500    0.0000 C.3     1  UNL1        0.1807
      8 C           5.4641    1.2500    0.0000 C.3     1  UNL1        0.1473
      9 C           4.5981   -0.2500    0.0000 C.3     1  UNL1        0.1682
     10 C           4.5981    1.7500    0.0000 C.3     1  UNL1        0.0068
     11 C           4.5981   -1.2500    0.0000 C.ar    1  UNL1       -0.0036
     12 C           4.5981    2.7500    0.0000 C.2     1  UNL1       -0.0737
     13 C           6.3301    2.7500    0.0000 C.2     1  UNL1        0.3320
     14 C           3.7320   -1.7500    0.0000 C.ar    1  UNL1       -0.0550
     15 C           5.4641   -1.7500    0.0000 C.ar    1  UNL1       -0.0550
     16 C           5.4641    3.2500    0.0000 C.2     1  UNL1        0.0187
     17 C           7.1962    0.2500    0.0000 C.2     1  UNL1        0.3044
     18 C           3.7320   -2.7500    0.0000 C.ar    1  UNL1       -0.0614
     19 C           5.4641   -2.7500    0.0000 C.ar    1  UNL1       -0.0614
     20 C           2.8660   -0.2500    0.0000 C.2     1  UNL1        0.3046
     21 C           4.5981   -3.2500    0.0000 C.ar    1  UNL1       -0.0617
     22 C           8.0622   -0.2500    0.0000 C.3     1  UNL1        0.0332
     23 C           2.0000    0.2500    0.0000 C.3     1  UNL1        0.0333
     24 H           5.4641   -0.3700    0.0000 H       1  UNL1        0.0813
     25 H           6.2002    0.8250    0.0000 H       1  UNL1        0.0776
     26 H           4.5981    0.3700    0.0000 H       1  UNL1        0.0824
     27 H           3.9875    1.8577    0.0000 H       1  UNL1        0.0344
     28 H           4.3860    1.1674    0.0000 H       1  UNL1        0.0344
     29 H           4.0611    3.0600    0.0000 H       1  UNL1        0.0575
     30 H           3.1951   -1.4400    0.0000 H       1  UNL1        0.0621
     31 H           6.0010   -1.4400    0.0000 H       1  UNL1        0.0621
     32 H           5.4641    3.8700    0.0000 H       1  UNL1        0.0686
     33 H           3.1951   -3.0600    0.0000 H       1  UNL1        0.0618
     34 H           6.0010   -3.0600    0.0000 H       1  UNL1        0.0618
     35 H           4.5981   -3.8700    0.0000 H       1  UNL1        0.0618
     36 H           7.7522   -0.7869    0.0000 H       1  UNL1        0.0342
     37 H           8.5991   -0.5600    0.0000 H       1  UNL1        0.0342
     38 H           8.3722    0.2869    0.0000 H       1  UNL1        0.0342
     39 H           2.3100    0.7869    0.0000 H       1  UNL1        0.0342
     40 H           1.4631    0.5600    0.0000 H       1  UNL1        0.0342
     41 H           1.6900   -0.2869    0.0000 H       1  UNL1        0.0342
@<TRIPOS>BOND
     1     1     8    1
     2     1    13    1
     3     7     2    1
     4     2    17    1
     5     9     3    1
     6     3    20    1
     7     4    13    2
     8     5    17    2
     9     6    20    2
    10     7     8    1
    11     7     9    1
    12     7    24    1
    13     8    10    1
    14     8    25    1
    15     9    11    1
    16     9    26    1
    17    10    12    1
    18    10    27    1
    19    10    28    1
    20    11    14   ar
    21    11    15   ar
    22    12    16    2
    23    12    29    1
    24    13    16    1
    25    14    18   ar
    26    14    30    1
    27    15    19   ar
    28    15    31    1
    29    16    32    1
    30    17    22    1
    31    18    21   ar
    32    18    33    1
    33    19    21   ar
    34    19    34    1
    35    20    23    1
    36    21    35    1
    37    22    36    1
    38    22    37    1
    39    22    38    1
    40    23    39    1
    41    23    40    1
    42    23    41    1
