@<TRIPOS>MOLECULE
IMPHY000392
 65 68 0 0 0
SMALL
GASTEIGER

@<TRIPOS>ATOM
      1 O           5.5262   -1.6725    0.0000 O.3     1  UNL1       -0.3313
      2 O           7.2582   -1.6725    0.0000 O.3     1  UNL1       -0.4603
      3 O           5.5262   -4.6725    0.0000 O.3     1  UNL1       -0.3864
      4 O           3.7941   -3.6725    0.0000 O.3     1  UNL1       -0.3865
      5 O           7.2582   -3.6725    0.0000 O.3     1  UNL1       -0.3829
      6 O           2.9281   -2.1725    0.0000 O.3     1  UNL1       -0.3924
      7 O           5.4822    1.3343    0.0000 O.2     1  UNL1       -0.4542
      8 O           8.9903    1.3275    0.0000 O.3     1  UNL1       -0.5055
      9 O           8.1460    2.8589    0.0000 O.2     1  UNL1       -0.2869
     10 O           3.7460    1.3692    0.0000 O.3     1  UNL1       -0.5059
     11 O           2.0024    4.3625    0.0000 O.3     1  UNL1       -0.5066
     12 C           5.5262   -3.6725    0.0000 C.3     1  UNL1        0.1152
     13 C           4.6602   -3.1725    0.0000 C.3     1  UNL1        0.1120
     14 C           6.3922   -3.1725    0.0000 C.3     1  UNL1        0.1454
     15 C           4.6602   -2.1725    0.0000 C.3     1  UNL1        0.1140
     16 C           6.3922   -2.1725    0.0000 C.3     1  UNL1        0.2308
     17 C           3.7941   -1.6725    0.0000 C.3     1  UNL1        0.0731
     18 C           7.2582   -0.6725    0.0000 C.ar    1  UNL1        0.1344
     19 C           8.1243   -0.1725    0.0000 C.ar    1  UNL1        0.0404
     20 C           6.3922   -0.1725    0.0000 C.ar    1  UNL1        0.0237
     21 C           8.1243    0.8275    0.0000 C.ar    1  UNL1        0.1381
     22 C           8.9903   -0.6725    0.0000 C.3     1  UNL1       -0.0023
     23 C           6.3922    0.8275    0.0000 C.ar    1  UNL1        0.1463
     24 C           7.2582    1.3275    0.0000 C.ar    1  UNL1        0.1057
     25 C           7.2743    2.3690    0.0000 C.ar    1  UNL1        0.1966
     26 C           9.8563   -0.1725    0.0000 C.2     1  UNL1       -0.0807
     27 C           5.4742    2.3759    0.0000 C.ar    1  UNL1        0.1427
     28 C           6.3762    2.8967    0.0000 C.ar    1  UNL1        0.0289
     29 C          10.7223   -0.6725    0.0000 C.2     1  UNL1       -0.0793
     30 C           4.6062    2.8726    0.0000 C.ar    1  UNL1        0.0590
     31 C          11.5884   -0.1725    0.0000 C.3     1  UNL1       -0.0440
     32 C          10.7223   -1.6725    0.0000 C.3     1  UNL1       -0.0440
     33 C           3.7421    2.3692    0.0000 C.ar    1  UNL1        0.1310
     34 C           4.6024    3.8726    0.0000 C.ar    1  UNL1       -0.0441
     35 C           2.8742    2.8659    0.0000 C.ar    1  UNL1        0.0220
     36 C           3.7344    4.3692    0.0000 C.ar    1  UNL1       -0.0193
     37 C           2.8703    3.8659    0.0000 C.ar    1  UNL1        0.1204
     38 H           6.0631   -3.9825    0.0000 H       1  UNL1        0.0648
     39 H           4.1232   -2.8625    0.0000 H       1  UNL1        0.0647
     40 H           6.9291   -2.8625    0.0000 H       1  UNL1        0.0683
     41 H           4.6602   -1.5525    0.0000 H       1  UNL1        0.0647
     42 H           6.3922   -1.5525    0.0000 H       1  UNL1        0.1084
     43 H           4.1927   -1.1976    0.0000 H       1  UNL1        0.0584
     44 H           3.3956   -1.1976    0.0000 H       1  UNL1        0.0584
     45 H           4.9892   -4.9825    0.0000 H       1  UNL1        0.2100
     46 H           3.7941   -4.2925    0.0000 H       1  UNL1        0.2100
     47 H           7.2582   -4.2925    0.0000 H       1  UNL1        0.2102
     48 H           5.8553   -0.4825    0.0000 H       1  UNL1        0.0691
     49 H           2.3912   -1.8625    0.0000 H       1  UNL1        0.2095
     50 H           8.5918   -1.1475    0.0000 H       1  UNL1        0.0358
     51 H           9.3888   -1.1475    0.0000 H       1  UNL1        0.0358
     52 H           9.8563    0.4475    0.0000 H       1  UNL1        0.0575
     53 H           6.3786    3.5167    0.0000 H       1  UNL1        0.0693
     54 H           8.9903    1.9475    0.0000 H       1  UNL1        0.2922
     55 H          11.8984   -0.7095    0.0000 H       1  UNL1        0.0274
     56 H          10.1023   -1.6725    0.0000 H       1  UNL1        0.0274
     57 H          10.7223   -2.2925    0.0000 H       1  UNL1        0.0274
     58 H          12.1253    0.1375    0.0000 H       1  UNL1        0.0274
     59 H          11.2784    0.3644    0.0000 H       1  UNL1        0.0274
     60 H          11.3423   -1.6725    0.0000 H       1  UNL1        0.0274
     61 H           5.1381    4.1846    0.0000 H       1  UNL1        0.0627
     62 H           2.3384    2.5538    0.0000 H       1  UNL1        0.0691
     63 H           3.7320    4.9892    0.0000 H       1  UNL1        0.0654
     64 H           3.2102    1.0572    0.0000 H       1  UNL1        0.2922
     65 H           2.0000    4.9825    0.0000 H       1  UNL1        0.2921
@<TRIPOS>BOND
     1     1    15    1
     2     1    16    1
     3    16     2    1
     4     2    18    1
     5    12     3    1
     6     3    45    1
     7    13     4    1
     8     4    46    1
     9    14     5    1
    10     5    47    1
    11     6    17    1
    12     6    49    1
    13     7    23   ar
    14     7    27   ar
    15     8    21    1
    16     8    54    1
    17     9    25    2
    18    10    33    1
    19    10    64    1
    20    11    37    1
    21    11    65    1
    22    12    13    1
    23    12    14    1
    24    12    38    1
    25    13    15    1
    26    13    39    1
    27    14    16    1
    28    14    40    1
    29    15    17    1
    30    15    41    1
    31    16    42    1
    32    17    43    1
    33    17    44    1
    34    18    19   ar
    35    18    20   ar
    36    19    21   ar
    37    19    22    1
    38    20    23   ar
    39    20    48    1
    40    21    24   ar
    41    22    26    1
    42    22    50    1
    43    22    51    1
    44    23    24   ar
    45    24    25   ar
    46    25    28   ar
    47    26    29    2
    48    26    52    1
    49    27    28   ar
    50    27    30    1
    51    28    53    1
    52    29    31    1
    53    29    32    1
    54    30    33   ar
    55    30    34   ar
    56    31    55    1
    57    31    58    1
    58    31    59    1
    59    32    56    1
    60    32    57    1
    61    32    60    1
    62    33    35   ar
    63    34    36   ar
    64    34    61    1
    65    35    37   ar
    66    35    62    1
    67    36    37   ar
    68    36    63    1
