@<TRIPOS>MOLECULE
IMPHY005202
 85 89 0 0 0
SMALL
GASTEIGER

@<TRIPOS>ATOM
      1 O           9.7749    1.8008    0.0000 O.3     1  UNL1       -0.3672
      2 O          10.4586   -0.7625    0.0000 O.3     1  UNL1       -0.3914
      3 O           6.1847   -4.3318    0.0000 O.3     1  UNL1       -0.3914
      4 O           2.5357   -3.3148    0.0000 O.3     1  UNL1       -0.3912
      5 O           9.8098    4.5118    0.0000 O.3     1  UNL1       -0.3866
      6 C           7.9288   -1.2625    0.0000 C.3     1  UNL1       -0.0170
      7 C           7.9288   -0.2625    0.0000 C.3     1  UNL1       -0.0148
      8 C           7.0628   -1.7625    0.0000 C.3     1  UNL1       -0.0110
      9 C           8.8750    0.0422    0.0000 C.3     1  UNL1        0.0201
     10 C           8.8750   -1.5672    0.0000 C.3     1  UNL1       -0.0200
     11 C           5.2868   -1.7694    0.0000 C.3     1  UNL1       -0.0050
     12 C           6.1968   -1.2625    0.0000 C.2     1  UNL1       -0.0635
     13 C           9.4586   -0.7625    0.0000 C.3     1  UNL1        0.0617
     14 C           5.2787   -2.8110    0.0000 C.3     1  UNL1        0.0016
     15 C           7.0628    0.2375    0.0000 C.3     1  UNL1       -0.0281
     16 C           7.0789   -2.8040    0.0000 C.3     1  UNL1       -0.0195
     17 C           9.1857    0.9928    0.0000 C.3     1  UNL1        0.0730
     18 C           6.1808   -3.3318    0.0000 C.3     1  UNL1        0.0600
     19 C           4.3433   -3.3607    0.0000 C.3     1  UNL1       -0.0030
     20 C           7.9288   -2.2625    0.0000 C.3     1  UNL1       -0.0584
     21 C           7.9288    0.7375    0.0000 C.3     1  UNL1       -0.0583
     22 C           6.1968   -0.2625    0.0000 C.2     1  UNL1       -0.0834
     23 C           4.3599   -1.2053    0.0000 C.3     1  UNL1       -0.0412
     24 C           3.4037   -2.8182    0.0000 C.3     1  UNL1        0.0607
     25 C           8.2352    1.3034    0.0000 C.3     1  UNL1       -0.0212
     26 C           5.2945   -0.7694    0.0000 C.3     1  UNL1       -0.0555
     27 C           3.4120   -1.7332    0.0000 C.3     1  UNL1       -0.0255
     28 C           9.9937    0.4036    0.0000 C.3     1  UNL1       -0.0354
     29 C           8.2369    2.3034    0.0000 C.3     1  UNL1       -0.0213
     30 C           9.1885    2.6108    0.0000 C.3     1  UNL1        0.0876
     31 C           3.8467   -4.2286    0.0000 C.3     1  UNL1       -0.0571
     32 C           4.8466   -4.2248    0.0000 C.3     1  UNL1       -0.0571
     33 C           9.4992    3.5613    0.0000 C.3     1  UNL1        0.0865
     34 C           8.5486    3.8720    0.0000 C.3     1  UNL1       -0.0339
     35 C          10.4497    3.2506    0.0000 C.3     1  UNL1       -0.0339
     36 H           7.8022   -2.1818    0.0000 H       1  UNL1        0.0352
     37 H           9.7148    0.1741    0.0000 H       1  UNL1        0.0359
     38 H           8.6240   -2.1341    0.0000 H       1  UNL1        0.0296
     39 H           9.4124   -1.8765    0.0000 H       1  UNL1        0.0296
     40 H           9.7404   -1.3148    0.0000 H       1  UNL1        0.0597
     41 H           5.2820   -3.6609    0.0000 H       1  UNL1        0.0340
     42 H           7.4613    0.7124    0.0000 H       1  UNL1        0.0313
     43 H           6.6643    0.7124    0.0000 H       1  UNL1        0.0313
     44 H           7.2969   -3.3844    0.0000 H       1  UNL1        0.0296
     45 H           7.6880   -2.6885    0.0000 H       1  UNL1        0.0296
     46 H           6.7195   -3.6386    0.0000 H       1  UNL1        0.0596
     47 H           7.3088   -2.2625    0.0000 H       1  UNL1        0.0235
     48 H           7.9288   -2.8825    0.0000 H       1  UNL1        0.0235
     49 H           8.5488   -2.2625    0.0000 H       1  UNL1        0.0235
     50 H           8.5488    0.7375    0.0000 H       1  UNL1        0.0235
     51 H           7.9288    1.3575    0.0000 H       1  UNL1        0.0235
     52 H           7.3088    0.7375    0.0000 H       1  UNL1        0.0235
     53 H           5.6598    0.0475    0.0000 H       1  UNL1        0.0572
     54 H           4.7681   -0.7386    0.0000 H       1  UNL1        0.0274
     55 H           3.9700   -0.7232    0.0000 H       1  UNL1        0.0274
     56 H           2.8686   -2.5051    0.0000 H       1  UNL1        0.0599
     57 H           7.6187    1.3693    0.0000 H       1  UNL1        0.0294
     58 H           8.1052    0.6972    0.0000 H       1  UNL1        0.0294
     59 H           5.9145   -0.7742    0.0000 H       1  UNL1        0.0238
     60 H           5.2993   -0.1494    0.0000 H       1  UNL1        0.0238
     61 H           4.6745   -0.7646    0.0000 H       1  UNL1        0.0238
     62 H           3.2075   -1.1479    0.0000 H       1  UNL1        0.0290
     63 H           2.8004   -1.8346    0.0000 H       1  UNL1        0.0290
     64 H           9.6284   -0.0974    0.0000 H       1  UNL1        0.0257
     65 H          10.4947    0.0383    0.0000 H       1  UNL1        0.0257
     66 H          10.3590    0.9045    0.0000 H       1  UNL1        0.0257
     67 H           8.1091    2.9101    0.0000 H       1  UNL1        0.0292
     68 H           7.6202    2.2397    0.0000 H       1  UNL1        0.0292
     69 H          10.0283    2.7423    0.0000 H       1  UNL1        0.0625
     70 H           3.3085   -3.9207    0.0000 H       1  UNL1        0.0236
     71 H           3.5387   -4.7667    0.0000 H       1  UNL1        0.0236
     72 H           4.3848   -4.5365    0.0000 H       1  UNL1        0.0236
     73 H           4.3109   -4.5368    0.0000 H       1  UNL1        0.0236
     74 H           5.1587   -4.7605    0.0000 H       1  UNL1        0.0236
     75 H           5.3824   -3.9127    0.0000 H       1  UNL1        0.0236
     76 H          10.7687   -1.2994    0.0000 H       1  UNL1        0.2098
     77 H           6.7228   -4.6397    0.0000 H       1  UNL1        0.2098
     78 H           2.0000   -3.0028    0.0000 H       1  UNL1        0.2098
     79 H           8.7413    4.4613    0.0000 H       1  UNL1        0.0258
     80 H           7.9593    4.0646    0.0000 H       1  UNL1        0.0258
     81 H           8.3560    3.2826    0.0000 H       1  UNL1        0.0258
     82 H          10.2571    2.6613    0.0000 H       1  UNL1        0.0258
     83 H          11.0390    3.0580    0.0000 H       1  UNL1        0.0258
     84 H          10.6423    3.8400    0.0000 H       1  UNL1        0.0258
     85 H          10.4165    4.6397    0.0000 H       1  UNL1        0.2102
@<TRIPOS>BOND
     1     1    17    1
     2     1    30    1
     3    13     2    1
     4     2    76    1
     5    18     3    1
     6     3    77    1
     7    24     4    1
     8     4    78    1
     9     5    33    1
    10     5    85    1
    11     6     7    1
    12     6     8    1
    13     6    10    1
    14     6    20    1
    15     7     9    1
    16     7    15    1
    17     7    21    1
    18     8    12    1
    19     8    16    1
    20     8    36    1
    21     9    13    1
    22     9    17    1
    23     9    37    1
    24    10    13    1
    25    10    38    1
    26    10    39    1
    27    11    12    1
    28    11    14    1
    29    11    23    1
    30    11    26    1
    31    12    22    2
    32    13    40    1
    33    14    18    1
    34    14    19    1
    35    14    41    1
    36    15    22    1
    37    15    42    1
    38    15    43    1
    39    16    18    1
    40    16    44    1
    41    16    45    1
    42    17    25    1
    43    17    28    1
    44    18    46    1
    45    19    24    1
    46    19    31    1
    47    19    32    1
    48    20    47    1
    49    20    48    1
    50    20    49    1
    51    21    50    1
    52    21    51    1
    53    21    52    1
    54    22    53    1
    55    23    27    1
    56    23    54    1
    57    23    55    1
    58    24    27    1
    59    24    56    1
    60    25    29    1
    61    25    57    1
    62    25    58    1
    63    26    59    1
    64    26    60    1
    65    26    61    1
    66    27    62    1
    67    27    63    1
    68    28    64    1
    69    28    65    1
    70    28    66    1
    71    29    30    1
    72    29    67    1
    73    29    68    1
    74    30    33    1
    75    30    69    1
    76    31    70    1
    77    31    71    1
    78    31    72    1
    79    32    73    1
    80    32    74    1
    81    32    75    1
    82    33    34    1
    83    33    35    1
    84    34    79    1
    85    34    80    1
    86    34    81    1
    87    35    82    1
    88    35    83    1
    89    35    84    1
