@<TRIPOS>MOLECULE
IMPHY003715
 48 51 0 0 0
SMALL
GASTEIGER

@<TRIPOS>ATOM
      1 O           4.6557    0.0355    0.0000 O.3     1  UNL1       -0.3712
      2 O           7.7244    0.0355    0.0000 O.3     1  UNL1       -0.3712
      3 O           2.6691    3.1624    0.0000 O.3     1  UNL1       -0.4914
      4 O           6.4264   -4.1589    0.0000 O.3     1  UNL1       -0.4914
      5 O           4.0074    4.6487    0.0000 O.3     1  UNL1       -0.5033
      6 O           8.3834   -4.5714    0.0000 O.3     1  UNL1       -0.5033
      7 C           6.1945    0.5355    0.0000 C.3     1  UNL1        0.0205
      8 C           6.1945   -0.4645    0.0000 C.3     1  UNL1        0.0205
      9 C           5.2435    0.8445    0.0000 C.3     1  UNL1        0.0891
     10 C           7.1407   -0.7693    0.0000 C.3     1  UNL1        0.0891
     11 C           5.2435   -0.7736    0.0000 C.3     1  UNL1        0.0544
     12 C           7.1407    0.8402    0.0000 C.3     1  UNL1        0.0544
     13 C           4.9344    1.7955    0.0000 C.ar    1  UNL1       -0.0149
     14 C           7.4514   -1.7198    0.0000 C.ar    1  UNL1       -0.0149
     15 C           3.9563    2.0034    0.0000 C.ar    1  UNL1       -0.0107
     16 C           6.7836   -2.4641    0.0000 C.ar    1  UNL1       -0.0107
     17 C           5.6036    2.5387    0.0000 C.ar    1  UNL1       -0.0524
     18 C           8.4299   -1.9260    0.0000 C.ar    1  UNL1       -0.0524
     19 C           3.6473    2.9545    0.0000 C.ar    1  UNL1        0.1616
     20 C           7.0942   -3.4146    0.0000 C.ar    1  UNL1        0.1616
     21 C           5.2946    3.4897    0.0000 C.ar    1  UNL1       -0.0162
     22 C           8.7406   -2.8765    0.0000 C.ar    1  UNL1       -0.0162
     23 C           4.3164    3.6976    0.0000 C.ar    1  UNL1        0.1585
     24 C           8.0727   -3.6208    0.0000 C.ar    1  UNL1        0.1585
     25 C           2.0000    2.4193    0.0000 C.3     1  UNL1        0.0790
     26 C           6.7370   -5.1094    0.0000 C.3     1  UNL1        0.0790
     27 H           6.1956    1.3854    0.0000 H       1  UNL1        0.0356
     28 H           6.1956   -1.3146    0.0000 H       1  UNL1        0.0356
     29 H           4.6311    0.9415    0.0000 H       1  UNL1        0.0650
     30 H           7.7532   -0.8655    0.0000 H       1  UNL1        0.0650
     31 H           4.7065   -1.0836    0.0000 H       1  UNL1        0.0564
     32 H           5.4956   -1.3400    0.0000 H       1  UNL1        0.0564
     33 H           7.6781    1.1494    0.0000 H       1  UNL1        0.0564
     34 H           6.8897    1.4071    0.0000 H       1  UNL1        0.0564
     35 H           3.5414    1.5427    0.0000 H       1  UNL1        0.0659
     36 H           6.1769   -2.3362    0.0000 H       1  UNL1        0.0659
     37 H           6.2100    2.4098    0.0000 H       1  UNL1        0.0622
     38 H           8.8440   -1.4646    0.0000 H       1  UNL1        0.0622
     39 H           5.7094    3.9505    0.0000 H       1  UNL1        0.0655
     40 H           9.3472   -3.0044    0.0000 H       1  UNL1        0.0655
     41 H           4.4222    5.1094    0.0000 H       1  UNL1        0.2923
     42 H           8.9901   -4.6992    0.0000 H       1  UNL1        0.2923
     43 H           1.5392    2.8341    0.0000 H       1  UNL1        0.0660
     44 H           1.5851    1.9585    0.0000 H       1  UNL1        0.0660
     45 H           2.4608    2.0044    0.0000 H       1  UNL1        0.0660
     46 H           6.1477   -5.3021    0.0000 H       1  UNL1        0.0660
     47 H           6.9296   -5.6988    0.0000 H       1  UNL1        0.0660
     48 H           7.3264   -4.9168    0.0000 H       1  UNL1        0.0660
@<TRIPOS>BOND
     1     1     9    1
     2     1    11    1
     3     2    10    1
     4     2    12    1
     5     3    19    1
     6     3    25    1
     7     4    20    1
     8     4    26    1
     9     5    23    1
    10     5    41    1
    11     6    24    1
    12     6    42    1
    13     7     8    1
    14     7     9    1
    15     7    12    1
    16     7    27    1
    17     8    10    1
    18     8    11    1
    19     8    28    1
    20     9    13    1
    21     9    29    1
    22    10    14    1
    23    10    30    1
    24    11    31    1
    25    11    32    1
    26    12    33    1
    27    12    34    1
    28    13    15   ar
    29    13    17   ar
    30    14    16   ar
    31    14    18   ar
    32    15    19   ar
    33    15    35    1
    34    16    20   ar
    35    16    36    1
    36    17    21   ar
    37    17    37    1
    38    18    22   ar
    39    18    38    1
    40    19    23   ar
    41    20    24   ar
    42    21    23   ar
    43    21    39    1
    44    22    24   ar
    45    22    40    1
    46    25    43    1
    47    25    44    1
    48    25    45    1
    49    26    46    1
    50    26    47    1
    51    26    48    1
