@<TRIPOS>MOLECULE
IMPHY000845
 51 54 0 0 0
SMALL
GASTEIGER

@<TRIPOS>ATOM
      1 O           7.8003    0.2500    0.0000 O.3     1  UNL1       -0.3335
      2 O           6.9343    1.7500    0.0000 O.3     1  UNL1       -0.3460
      3 O           6.0682   -1.7500    0.0000 O.3     1  UNL1       -0.4802
      4 O           9.5323    1.2500    0.0000 O.3     1  UNL1       -0.3841
      5 O           9.5323    3.2500    0.0000 O.3     1  UNL1       -0.3864
      6 O           7.8003    4.2500    0.0000 O.3     1  UNL1       -0.3869
      7 O           6.0682    1.2500    0.0000 O.2     1  UNL1       -0.2889
      8 O           4.3198    1.2846    0.0000 O.3     1  UNL1       -0.5058
      9 O           2.5381   -1.7742    0.0000 O.3     1  UNL1       -0.5065
     10 O           8.6663   -4.2500    0.0000 O.3     1  UNL1       -0.5033
     11 O          10.3984   -3.2500    0.0000 O.3     1  UNL1       -0.5033
     12 C           8.6663    1.7500    0.0000 C.3     1  UNL1        0.1341
     13 C           7.8003    1.2500    0.0000 C.3     1  UNL1        0.1885
     14 C           8.6663    2.7500    0.0000 C.3     1  UNL1        0.1137
     15 C           7.8003    3.2500    0.0000 C.3     1  UNL1        0.1069
     16 C           6.9343   -0.2500    0.0000 C.3     1  UNL1        0.1650
     17 C           6.9343   -1.2500    0.0000 C.3     1  UNL1        0.1586
     18 C           6.9343    2.7500    0.0000 C.3     1  UNL1        0.0792
     19 C           6.0682    0.2500    0.0000 C.2     1  UNL1        0.2027
     20 C           7.8003   -1.7500    0.0000 C.ar    1  UNL1       -0.0007
     21 C           5.2022   -0.2500    0.0000 C.ar    1  UNL1        0.1033
     22 C           5.2022   -1.2500    0.0000 C.ar    1  UNL1        0.1391
     23 C           4.3083    0.2847    0.0000 C.ar    1  UNL1        0.1344
     24 C           7.8003   -2.7500    0.0000 C.ar    1  UNL1       -0.0098
     25 C           8.6663   -1.2500    0.0000 C.ar    1  UNL1       -0.0513
     26 C           4.3083   -1.7847    0.0000 C.ar    1  UNL1        0.0225
     27 C           3.4022   -0.2292    0.0000 C.ar    1  UNL1        0.0222
     28 C           3.4022   -1.2708    0.0000 C.ar    1  UNL1        0.1238
     29 C           8.6663   -3.2500    0.0000 C.ar    1  UNL1        0.1586
     30 C           9.5323   -1.7500    0.0000 C.ar    1  UNL1       -0.0162
     31 C           9.5323   -2.7500    0.0000 C.ar    1  UNL1        0.1582
     32 H           8.6663    1.1300    0.0000 H       1  UNL1        0.0671
     33 H           7.2634    0.9400    0.0000 H       1  UNL1        0.0938
     34 H           8.6663    3.3700    0.0000 H       1  UNL1        0.0647
     35 H           7.2634    3.5600    0.0000 H       1  UNL1        0.0643
     36 H           6.9343    0.3700    0.0000 H       1  UNL1        0.0722
     37 H           6.9343   -1.8700    0.0000 H       1  UNL1        0.0815
     38 H           6.7222    3.3326    0.0000 H       1  UNL1        0.0587
     39 H           6.3237    2.6423    0.0000 H       1  UNL1        0.0587
     40 H          10.0693    1.5600    0.0000 H       1  UNL1        0.2101
     41 H           9.5323    3.8700    0.0000 H       1  UNL1        0.2100
     42 H           7.2634    4.5600    0.0000 H       1  UNL1        0.2100
     43 H           7.2634   -3.0600    0.0000 H       1  UNL1        0.0659
     44 H           8.6663   -0.6300    0.0000 H       1  UNL1        0.0623
     45 H           4.3154   -2.4046    0.0000 H       1  UNL1        0.0691
     46 H           2.8665    0.0829    0.0000 H       1  UNL1        0.0691
     47 H          10.0693   -1.4400    0.0000 H       1  UNL1        0.0655
     48 H           3.7865    1.6008    0.0000 H       1  UNL1        0.2922
     49 H           2.0000   -1.4662    0.0000 H       1  UNL1        0.2921
     50 H           8.1294   -4.5600    0.0000 H       1  UNL1        0.2923
     51 H          10.9353   -2.9400    0.0000 H       1  UNL1        0.2923
@<TRIPOS>BOND
     1    13     1    1
     2    16     1    1
     3     2    13    1
     4     2    18    1
     5     3    17    1
     6     3    22    1
     7    12     4    1
     8     4    40    1
     9    14     5    1
    10     5    41    1
    11    15     6    1
    12     6    42    1
    13     7    19    2
    14     8    23    1
    15     8    48    1
    16     9    28    1
    17     9    49    1
    18    10    29    1
    19    10    50    1
    20    11    31    1
    21    11    51    1
    22    12    13    1
    23    12    14    1
    24    12    32    1
    25    13    33    1
    26    14    15    1
    27    14    34    1
    28    15    18    1
    29    15    35    1
    30    16    17    1
    31    16    19    1
    32    16    36    1
    33    17    20    1
    34    17    37    1
    35    18    38    1
    36    18    39    1
    37    19    21    1
    38    20    24   ar
    39    20    25   ar
    40    21    22   ar
    41    21    23   ar
    42    22    26   ar
    43    23    27   ar
    44    24    29   ar
    45    24    43    1
    46    25    30   ar
    47    25    44    1
    48    26    28   ar
    49    26    45    1
    50    27    28   ar
    51    27    46    1
    52    29    31   ar
    53    30    31   ar
    54    30    47    1
