@<TRIPOS>MOLECULE
IMPHY012015
 48 48 0 0 0
SMALL
GASTEIGER

@<TRIPOS>ATOM
      1 O           2.2690    7.0850    0.0000 O.3     1  UNL1       -0.5065
      2 O           7.9409    3.6200    0.0000 O.3     2  UNL2       -0.5068
      3 O           7.5079   10.5500    0.0000 O.3     3  UNL3       -0.5068
      4 C           1.4030    5.5850    0.0000 C.ar    1  UNL1       -0.0090
      5 C           7.0749    1.1200    0.0000 C.ar    2  UNL2       -0.0470
      6 C           7.5079    7.5500    0.0000 C.ar    3  UNL3       -0.0502
      7 C           2.2690    6.0850    0.0000 C.ar    1  UNL1        0.1197
      8 C           1.4030    4.5850    0.0000 C.ar    1  UNL1       -0.0554
      9 C           7.0749    2.1200    0.0000 C.ar    2  UNL2       -0.0173
     10 C           7.9409    0.6200    0.0000 C.ar    2  UNL2       -0.0586
     11 C           8.3740    8.0500    0.0000 C.ar    3  UNL3       -0.0554
     12 C           6.6419    8.0500    0.0000 C.ar    3  UNL3       -0.0554
     13 C           0.5369    6.0850    0.0000 C.3     1  UNL1       -0.0363
     14 C           7.9409    2.6200    0.0000 C.ar    2  UNL2        0.1171
     15 C           3.1350    5.5850    0.0000 C.ar    1  UNL1       -0.0199
     16 C           2.2690    4.0850    0.0000 C.ar    1  UNL1       -0.0613
     17 C           6.2089    0.6200    0.0000 C.3     2  UNL2       -0.0396
     18 C           8.3740    9.0500    0.0000 C.ar    3  UNL3       -0.0199
     19 C           6.6419    9.0500    0.0000 C.ar    3  UNL3       -0.0199
     20 C           7.5079    9.5500    0.0000 C.ar    3  UNL3        0.1169
     21 C           7.5079    6.5500    0.0000 C.3     3  UNL3       -0.0397
     22 C           8.8070    1.1200    0.0000 C.ar    2  UNL2       -0.0581
     23 C           3.1350    4.5850    0.0000 C.ar    1  UNL1       -0.0583
     24 C           8.8070    2.1200    0.0000 C.ar    2  UNL2       -0.0202
     25 H           0.8660    4.2750    0.0000 H       1  UNL1        0.0621
     26 H           6.5380    2.4300    0.0000 H       2  UNL2        0.0657
     27 H           7.9409    0.0000    0.0000 H       2  UNL2        0.0620
     28 H           8.9109    7.7400    0.0000 H       3  UNL3        0.0621
     29 H           6.1050    7.7400    0.0000 H       3  UNL3        0.0621
     30 H           0.8469    6.6219    0.0000 H       1  UNL1        0.0279
     31 H           0.0000    6.3950    0.0000 H       1  UNL1        0.0279
     32 H           0.2269    5.5481    0.0000 H       1  UNL1        0.0279
     33 H           3.6720    5.8950    0.0000 H       1  UNL1        0.0654
     34 H           2.2690    3.4650    0.0000 H       1  UNL1        0.0618
     35 H           5.8989    1.1569    0.0000 H       2  UNL2        0.0278
     36 H           5.6720    0.3100    0.0000 H       2  UNL2        0.0278
     37 H           6.5189    0.0831    0.0000 H       2  UNL2        0.0278
     38 H           8.9109    9.3600    0.0000 H       3  UNL3        0.0654
     39 H           6.1050    9.3600    0.0000 H       3  UNL3        0.0654
     40 H           6.8879    6.5500    0.0000 H       3  UNL3        0.0278
     41 H           7.5079    5.9300    0.0000 H       3  UNL3        0.0278
     42 H           8.1279    6.5500    0.0000 H       3  UNL3        0.0278
     43 H           9.3439    0.8100    0.0000 H       2  UNL2        0.0619
     44 H           3.6720    4.2750    0.0000 H       1  UNL1        0.0619
     45 H           9.3439    2.4300    0.0000 H       2  UNL2        0.0654
     46 H           2.8059    7.3950    0.0000 H       1  UNL1        0.2921
     47 H           8.4779    3.9300    0.0000 H       2  UNL2        0.2921
     48 H           8.0449   10.8600    0.0000 H       3  UNL3        0.2921
@<TRIPOS>BOND
     1     1     7    1
     2     1    46    1
     3     2    14    1
     4     2    47    1
     5     3    20    1
     6     3    48    1
     7     4     7   ar
     8     4     8   ar
     9     4    13    1
    10     5     9   ar
    11     5    10   ar
    12     5    17    1
    13     6    11   ar
    14     6    12   ar
    15     6    21    1
    16     7    15   ar
    17     8    16   ar
    18     8    25    1
    19     9    14   ar
    20     9    26    1
    21    10    22   ar
    22    10    27    1
    23    11    18   ar
    24    11    28    1
    25    12    19   ar
    26    12    29    1
    27    13    30    1
    28    13    31    1
    29    13    32    1
    30    14    24   ar
    31    15    23   ar
    32    15    33    1
    33    16    23   ar
    34    16    34    1
    35    17    35    1
    36    17    36    1
    37    17    37    1
    38    18    20   ar
    39    18    38    1
    40    19    20   ar
    41    19    39    1
    42    21    40    1
    43    21    41    1
    44    21    42    1
    45    22    24   ar
    46    22    43    1
    47    23    44    1
    48    24    45    1
