@<TRIPOS>MOLECULE
IMPHY015390
 77 76 0 0 0
SMALL
GASTEIGER

@<TRIPOS>ATOM
      1 C           4.5981    0.2500    0.0000 C.3     1  UNL1       -0.0439
      2 C           5.4641    0.7500    0.0000 C.3     1  UNL1       -0.0505
      3 C           6.3301    0.2500    0.0000 C.3     1  UNL1       -0.0528
      4 C           7.1962    0.7500    0.0000 C.3     1  UNL1       -0.0530
      5 C           8.0622    0.2500    0.0000 C.3     1  UNL1       -0.0531
      6 C           8.9282    0.7500    0.0000 C.3     1  UNL1       -0.0531
      7 C           9.7942    0.2500    0.0000 C.3     1  UNL1       -0.0531
      8 C          10.6603    0.7500    0.0000 C.3     1  UNL1       -0.0531
      9 C          11.5263    0.2500    0.0000 C.3     1  UNL1       -0.0531
     10 C          12.3923    0.7500    0.0000 C.3     1  UNL1       -0.0531
     11 C          13.2583    0.2500    0.0000 C.3     1  UNL1       -0.0531
     12 C           3.7320    0.7500    0.0000 C.3     1  UNL1       -0.0507
     13 C          14.1244    0.7500    0.0000 C.3     1  UNL1       -0.0531
     14 C          14.9904    0.2500    0.0000 C.3     1  UNL1       -0.0531
     15 C          15.8564    0.7500    0.0000 C.3     1  UNL1       -0.0531
     16 C          16.7224    0.2500    0.0000 C.3     1  UNL1       -0.0531
     17 C           4.5981   -0.7500    0.0000 C.3     1  UNL1       -0.0624
     18 C          17.5885    0.7500    0.0000 C.3     1  UNL1       -0.0531
     19 C           2.8660    0.2500    0.0000 C.3     1  UNL1       -0.0557
     20 C          18.4545    0.2500    0.0000 C.3     1  UNL1       -0.0531
     21 C          19.3205    0.7500    0.0000 C.3     1  UNL1       -0.0531
     22 C          20.1865    0.2500    0.0000 C.3     1  UNL1       -0.0533
     23 C           2.0000    0.7500    0.0000 C.3     1  UNL1       -0.0653
     24 C          21.0526    0.7500    0.0000 C.3     1  UNL1       -0.0559
     25 C          21.9186    0.2500    0.0000 C.3     1  UNL1       -0.0653
     26 H           5.1350   -0.0600    0.0000 H       1  UNL1        0.0298
     27 H           5.8626    1.2250    0.0000 H       1  UNL1        0.0268
     28 H           5.0656    1.2250    0.0000 H       1  UNL1        0.0268
     29 H           5.9316   -0.2249    0.0000 H       1  UNL1        0.0265
     30 H           6.7287   -0.2249    0.0000 H       1  UNL1        0.0265
     31 H           7.5947    1.2250    0.0000 H       1  UNL1        0.0265
     32 H           6.7976    1.2250    0.0000 H       1  UNL1        0.0265
     33 H           7.6636   -0.2249    0.0000 H       1  UNL1        0.0265
     34 H           8.4607   -0.2249    0.0000 H       1  UNL1        0.0265
     35 H           9.3267    1.2250    0.0000 H       1  UNL1        0.0265
     36 H           8.5297    1.2250    0.0000 H       1  UNL1        0.0265
     37 H           9.3957   -0.2249    0.0000 H       1  UNL1        0.0265
     38 H          10.1928   -0.2249    0.0000 H       1  UNL1        0.0265
     39 H          11.0588    1.2250    0.0000 H       1  UNL1        0.0265
     40 H          10.2617    1.2250    0.0000 H       1  UNL1        0.0265
     41 H          11.1278   -0.2249    0.0000 H       1  UNL1        0.0265
     42 H          11.9248   -0.2249    0.0000 H       1  UNL1        0.0265
     43 H          12.7908    1.2250    0.0000 H       1  UNL1        0.0265
     44 H          11.9938    1.2250    0.0000 H       1  UNL1        0.0265
     45 H          12.8598   -0.2249    0.0000 H       1  UNL1        0.0265
     46 H          13.6569   -0.2249    0.0000 H       1  UNL1        0.0265
     47 H           4.1306    1.2250    0.0000 H       1  UNL1        0.0268
     48 H           3.3335    1.2250    0.0000 H       1  UNL1        0.0268
     49 H          14.5229    1.2250    0.0000 H       1  UNL1        0.0265
     50 H          13.7258    1.2250    0.0000 H       1  UNL1        0.0265
     51 H          14.5919   -0.2249    0.0000 H       1  UNL1        0.0265
     52 H          15.3889   -0.2249    0.0000 H       1  UNL1        0.0265
     53 H          16.2549    1.2250    0.0000 H       1  UNL1        0.0265
     54 H          15.4579    1.2250    0.0000 H       1  UNL1        0.0265
     55 H          16.3239   -0.2249    0.0000 H       1  UNL1        0.0265
     56 H          17.1210   -0.2249    0.0000 H       1  UNL1        0.0265
     57 H           3.9781   -0.7500    0.0000 H       1  UNL1        0.0232
     58 H           4.5981   -1.3700    0.0000 H       1  UNL1        0.0232
     59 H           5.2181   -0.7500    0.0000 H       1  UNL1        0.0232
     60 H          17.9870    1.2250    0.0000 H       1  UNL1        0.0265
     61 H          17.1899    1.2250    0.0000 H       1  UNL1        0.0265
     62 H           2.4675   -0.2249    0.0000 H       1  UNL1        0.0263
     63 H           3.2646   -0.2249    0.0000 H       1  UNL1        0.0263
     64 H          18.0560   -0.2249    0.0000 H       1  UNL1        0.0265
     65 H          18.8530   -0.2249    0.0000 H       1  UNL1        0.0265
     66 H          19.7190    1.2250    0.0000 H       1  UNL1        0.0265
     67 H          18.9220    1.2250    0.0000 H       1  UNL1        0.0265
     68 H          19.7880   -0.2249    0.0000 H       1  UNL1        0.0265
     69 H          20.5851   -0.2249    0.0000 H       1  UNL1        0.0265
     70 H           2.3100    1.2869    0.0000 H       1  UNL1        0.0230
     71 H           1.4631    1.0600    0.0000 H       1  UNL1        0.0230
     72 H           1.6900    0.2131    0.0000 H       1  UNL1        0.0230
     73 H          21.4511    1.2250    0.0000 H       1  UNL1        0.0263
     74 H          20.6540    1.2250    0.0000 H       1  UNL1        0.0263
     75 H          21.6086   -0.2869    0.0000 H       1  UNL1        0.0230
     76 H          22.4555   -0.0600    0.0000 H       1  UNL1        0.0230
     77 H          22.2286    0.7869    0.0000 H       1  UNL1        0.0230
@<TRIPOS>BOND
     1     1     2    1
     2     1    12    1
     3     1    17    1
     4     1    26    1
     5     2     3    1
     6     2    27    1
     7     2    28    1
     8     3     4    1
     9     3    29    1
    10     3    30    1
    11     4     5    1
    12     4    31    1
    13     4    32    1
    14     5     6    1
    15     5    33    1
    16     5    34    1
    17     6     7    1
    18     6    35    1
    19     6    36    1
    20     7     8    1
    21     7    37    1
    22     7    38    1
    23     8     9    1
    24     8    39    1
    25     8    40    1
    26     9    10    1
    27     9    41    1
    28     9    42    1
    29    10    11    1
    30    10    43    1
    31    10    44    1
    32    11    13    1
    33    11    45    1
    34    11    46    1
    35    12    19    1
    36    12    47    1
    37    12    48    1
    38    13    14    1
    39    13    49    1
    40    13    50    1
    41    14    15    1
    42    14    51    1
    43    14    52    1
    44    15    16    1
    45    15    53    1
    46    15    54    1
    47    16    18    1
    48    16    55    1
    49    16    56    1
    50    17    57    1
    51    17    58    1
    52    17    59    1
    53    18    20    1
    54    18    60    1
    55    18    61    1
    56    19    23    1
    57    19    62    1
    58    19    63    1
    59    20    21    1
    60    20    64    1
    61    20    65    1
    62    21    22    1
    63    21    66    1
    64    21    67    1
    65    22    24    1
    66    22    68    1
    67    22    69    1
    68    23    70    1
    69    23    71    1
    70    23    72    1
    71    24    25    1
    72    24    73    1
    73    24    74    1
    74    25    75    1
    75    25    76    1
    76    25    77    1
