@<TRIPOS>MOLECULE
IMPHY008523
 46 48 0 0 0
SMALL
GASTEIGER

@<TRIPOS>ATOM
      1 O           6.3580   -0.2720    0.0000 O.2     1  UNL1       -0.4507
      2 O           4.5981   -1.2373    0.0000 O.3     1  UNL1       -0.4884
      3 O           2.8660   -0.2373    0.0000 O.3     1  UNL1       -0.4883
      4 O           2.8660    1.7627    0.0000 O.3     1  UNL1       -0.4884
      5 O           4.5981    2.7627    0.0000 O.3     1  UNL1       -0.5027
      6 O           6.3465    2.7973    0.0000 O.2     1  UNL1       -0.2869
      7 O          10.7205   -1.7714    0.0000 O.3     1  UNL1       -0.4885
      8 O          10.7282    0.2285    0.0000 O.3     1  UNL1       -0.5032
      9 O           8.9846   -2.7648    0.0000 O.3     1  UNL1       -0.5032
     10 C           5.4641    1.2627    0.0000 C.ar    1  UNL1        0.1128
     11 C           5.4641    0.2627    0.0000 C.ar    1  UNL1        0.1881
     12 C           4.5981   -0.2373    0.0000 C.ar    1  UNL1        0.2088
     13 C           7.2641    0.2419    0.0000 C.ar    1  UNL1        0.1396
     14 C           4.5981    1.7627    0.0000 C.ar    1  UNL1        0.1770
     15 C           3.7320    0.2627    0.0000 C.ar    1  UNL1        0.2110
     16 C           6.3580    1.7974    0.0000 C.ar    1  UNL1        0.1969
     17 C           3.7320    1.2627    0.0000 C.ar    1  UNL1        0.2080
     18 C           8.1282   -0.2615    0.0000 C.ar    1  UNL1        0.0245
     19 C           7.2641    1.2835    0.0000 C.ar    1  UNL1        0.0288
     20 C           8.1244   -1.2614    0.0000 C.ar    1  UNL1       -0.0056
     21 C           8.9962    0.2352    0.0000 C.ar    1  UNL1       -0.0056
     22 C           9.8602   -0.2681    0.0000 C.ar    1  UNL1        0.1628
     23 C           8.9884   -1.7648    0.0000 C.ar    1  UNL1        0.1628
     24 C           9.8564   -1.2681    0.0000 C.ar    1  UNL1        0.2031
     25 C           3.7320   -1.7373    0.0000 C.3     1  UNL1        0.0791
     26 C           2.0000    0.2627    0.0000 C.3     1  UNL1        0.0791
     27 C           2.0000    1.2627    0.0000 C.3     1  UNL1        0.0791
     28 C          11.5884   -1.2748    0.0000 C.3     1  UNL1        0.0791
     29 H           7.7998    1.5956    0.0000 H       1  UNL1        0.0693
     30 H           7.5862   -1.5694    0.0000 H       1  UNL1        0.0662
     31 H           8.9985    0.8552    0.0000 H       1  UNL1        0.0662
     32 H           4.0611    3.0727    0.0000 H       1  UNL1        0.2923
     33 H           3.4220   -1.2004    0.0000 H       1  UNL1        0.0660
     34 H           3.1951   -2.0473    0.0000 H       1  UNL1        0.0660
     35 H           4.0420   -2.2742    0.0000 H       1  UNL1        0.0660
     36 H           2.3100    0.7996    0.0000 H       1  UNL1        0.0660
     37 H           1.4631    0.5727    0.0000 H       1  UNL1        0.0660
     38 H           1.6900   -0.2742    0.0000 H       1  UNL1        0.0660
     39 H           1.6900    1.7996    0.0000 H       1  UNL1        0.0660
     40 H           1.4631    0.9527    0.0000 H       1  UNL1        0.0660
     41 H           2.3100    0.7258    0.0000 H       1  UNL1        0.0660
     42 H          10.7306    0.8485    0.0000 H       1  UNL1        0.2923
     43 H           8.4465   -3.0727    0.0000 H       1  UNL1        0.2923
     44 H          11.8964   -1.8129    0.0000 H       1  UNL1        0.0660
     45 H          12.1266   -0.9669    0.0000 H       1  UNL1        0.0660
     46 H          11.2805   -0.7367    0.0000 H       1  UNL1        0.0660
@<TRIPOS>BOND
     1     1    11   ar
     2     1    13   ar
     3     2    12    1
     4     2    25    1
     5     3    15    1
     6     3    26    1
     7     4    17    1
     8     4    27    1
     9     5    14    1
    10     5    32    1
    11     6    16    2
    12     7    24    1
    13     7    28    1
    14     8    22    1
    15     8    42    1
    16     9    23    1
    17     9    43    1
    18    10    11   ar
    19    10    14   ar
    20    10    16   ar
    21    11    12   ar
    22    12    15   ar
    23    13    18    1
    24    13    19   ar
    25    14    17   ar
    26    15    17   ar
    27    16    19   ar
    28    18    20   ar
    29    18    21   ar
    30    19    29    1
    31    20    23   ar
    32    20    30    1
    33    21    22   ar
    34    21    31    1
    35    22    24   ar
    36    23    24   ar
    37    25    33    1
    38    25    34    1
    39    25    35    1
    40    26    36    1
    41    26    37    1
    42    26    38    1
    43    27    39    1
    44    27    40    1
    45    27    41    1
    46    28    44    1
    47    28    45    1
    48    28    46    1
