@<TRIPOS>MOLECULE
IMPHY005442
 34 36 0 0 0
SMALL
GASTEIGER

@<TRIPOS>ATOM
      1 O           6.3580   -0.9226    0.0000 O.2     1  UNL1       -0.4544
      2 O           2.8660    1.1121    0.0000 O.3     1  UNL1       -0.4885
      3 O           4.5981    2.1121    0.0000 O.3     1  UNL1       -0.5027
      4 O           2.8660   -0.8879    0.0000 O.3     1  UNL1       -0.5031
      5 O           6.3465    2.1467    0.0000 O.2     1  UNL1       -0.2869
      6 O          10.7205   -2.4221    0.0000 O.3     1  UNL1       -0.5068
      7 C           5.4641    0.6121    0.0000 C.ar    1  UNL1        0.1091
      8 C           5.4641   -0.3879    0.0000 C.ar    1  UNL1        0.1465
      9 C           7.2641   -0.4087    0.0000 C.ar    1  UNL1        0.1392
     10 C           4.5981    1.1121    0.0000 C.ar    1  UNL1        0.1768
     11 C           6.3580    1.1467    0.0000 C.ar    1  UNL1        0.1967
     12 C           4.5981   -0.8879    0.0000 C.ar    1  UNL1        0.0268
     13 C           3.7320    0.6121    0.0000 C.ar    1  UNL1        0.2040
     14 C           7.2641    0.6329    0.0000 C.ar    1  UNL1        0.0288
     15 C           8.1282   -0.9121    0.0000 C.ar    1  UNL1        0.0176
     16 C           3.7320   -0.3879    0.0000 C.ar    1  UNL1        0.1657
     17 C           8.9962   -0.4154    0.0000 C.ar    1  UNL1       -0.0476
     18 C           8.1244   -1.9121    0.0000 C.ar    1  UNL1       -0.0476
     19 C           9.8602   -0.9188    0.0000 C.ar    1  UNL1       -0.0195
     20 C           8.9884   -2.4154    0.0000 C.ar    1  UNL1       -0.0195
     21 C           9.8564   -1.9187    0.0000 C.ar    1  UNL1        0.1169
     22 C           2.0000    0.6121    0.0000 C.3     1  UNL1        0.0791
     23 H           4.5981   -1.5079    0.0000 H       1  UNL1        0.0692
     24 H           7.7998    0.9450    0.0000 H       1  UNL1        0.0693
     25 H           8.9985    0.2046    0.0000 H       1  UNL1        0.0626
     26 H           7.5862   -2.2200    0.0000 H       1  UNL1        0.0626
     27 H          10.3984   -0.6108    0.0000 H       1  UNL1        0.0654
     28 H           8.9860   -3.0354    0.0000 H       1  UNL1        0.0654
     29 H           4.0611    2.4221    0.0000 H       1  UNL1        0.2923
     30 H           2.8660   -1.5079    0.0000 H       1  UNL1        0.2923
     31 H           1.6900    1.1490    0.0000 H       1  UNL1        0.0660
     32 H           1.4631    0.3021    0.0000 H       1  UNL1        0.0660
     33 H           2.3100    0.0751    0.0000 H       1  UNL1        0.0660
     34 H          11.2586   -2.1142    0.0000 H       1  UNL1        0.2921
@<TRIPOS>BOND
     1     1     8   ar
     2     1     9   ar
     3     2    13    1
     4     2    22    1
     5     3    10    1
     6     3    29    1
     7     4    16    1
     8     4    30    1
     9     5    11    2
    10     6    21    1
    11     6    34    1
    12     7     8   ar
    13     7    10   ar
    14     7    11   ar
    15     8    12   ar
    16     9    14   ar
    17     9    15    1
    18    10    13   ar
    19    11    14   ar
    20    12    16   ar
    21    12    23    1
    22    13    16   ar
    23    14    24    1
    24    15    17   ar
    25    15    18   ar
    26    17    19   ar
    27    17    25    1
    28    18    20   ar
    29    18    26    1
    30    19    21   ar
    31    19    27    1
    32    20    21   ar
    33    20    28    1
    34    22    31    1
    35    22    32    1
    36    22    33    1
