@<TRIPOS>MOLECULE
IMPHY014016
 29 29 0 0 0
SMALL
GASTEIGER

@<TRIPOS>ATOM
      1 O           7.6520   -0.6895    0.0000 O.2     1  UNL1       -0.2974
      2 O           2.5989    1.9142    0.0000 O.3     1  UNL1       -0.4806
      3 O           3.0472    0.2412    0.0000 O.2     1  UNL1       -0.2510
      4 C           5.9790    0.7588    0.0000 C.3     1  UNL1       -0.0221
      5 C           4.9790    0.7588    0.0000 C.3     1  UNL1       -0.0245
      6 C           5.9790   -0.2412    0.0000 C.3     1  UNL1        0.0229
      7 C           4.9790   -0.2412    0.0000 C.3     1  UNL1       -0.0392
      8 C           6.9790    0.7588    0.0000 C.3     1  UNL1       -0.0589
      9 C           5.9790    1.7588    0.0000 C.3     1  UNL1       -0.0589
     10 C           4.2719    1.4659    0.0000 C.3     1  UNL1        0.0481
     11 C           6.6861   -0.9483    0.0000 C.2     1  UNL1        0.1339
     12 C           3.3060    1.2071    0.0000 C.2     1  UNL1        0.3050
     13 C           6.4273   -1.9142    0.0000 C.3     1  UNL1       -0.0058
     14 H           4.4062    0.5216    0.0000 H       1  UNL1        0.0311
     15 H           6.5518   -0.0039    0.0000 H       1  UNL1        0.0383
     16 H           4.3590   -0.2412    0.0000 H       1  UNL1        0.0275
     17 H           4.9790   -0.8612    0.0000 H       1  UNL1        0.0275
     18 H           6.9790    0.1388    0.0000 H       1  UNL1        0.0235
     19 H           7.5990    0.7588    0.0000 H       1  UNL1        0.0235
     20 H           6.9790    1.3788    0.0000 H       1  UNL1        0.0235
     21 H           6.5990    1.7588    0.0000 H       1  UNL1        0.0235
     22 H           5.9790    2.3788    0.0000 H       1  UNL1        0.0235
     23 H           5.3590    1.7588    0.0000 H       1  UNL1        0.0235
     24 H           4.7798    1.8215    0.0000 H       1  UNL1        0.0380
     25 H           4.0099    2.0278    0.0000 H       1  UNL1        0.0380
     26 H           5.8284   -1.7538    0.0000 H       1  UNL1        0.0306
     27 H           6.2668   -2.5131    0.0000 H       1  UNL1        0.0306
     28 H           7.0262   -2.0747    0.0000 H       1  UNL1        0.0306
     29 H           2.0000    1.7538    0.0000 H       1  UNL1        0.2951
@<TRIPOS>BOND
     1     1    11    2
     2     2    12    1
     3     2    29    1
     4     3    12    2
     5     4     5    1
     6     4     6    1
     7     4     8    1
     8     4     9    1
     9     5     7    1
    10     5    10    1
    11     5    14    1
    12     6     7    1
    13     6    11    1
    14     6    15    1
    15     7    16    1
    16     7    17    1
    17     8    18    1
    18     8    19    1
    19     8    20    1
    20     9    21    1
    21     9    22    1
    22     9    23    1
    23    10    12    1
    24    10    24    1
    25    10    25    1
    26    11    13    1
    27    13    26    1
    28    13    27    1
    29    13    28    1
