@<TRIPOS>MOLECULE
IMPHY001412
 52 56 0 0 0
SMALL
GASTEIGER

@<TRIPOS>ATOM
      1 O           3.5471    3.6295    0.0000 O.3     1  UNL1       -0.4802
      2 O           2.0572    2.7462    0.0000 O.2     1  UNL1       -0.2504
      3 C           3.0832   -2.6828    0.0000 C.3     1  UNL1       -0.0253
      4 C           4.0832   -2.6828    0.0000 C.3     1  UNL1       -0.0315
      5 C           3.5832   -3.5493    0.0000 C.3     1  UNL1       -0.0317
      6 C           3.5832   -1.1439    0.0000 C.3     1  UNL1       -0.0251
      7 C           4.4492   -0.6439    0.0000 C.3     1  UNL1       -0.0294
      8 C           2.7741   -1.7317    0.0000 C.3     1  UNL1       -0.0411
      9 C           4.3922   -1.7317    0.0000 C.3     1  UNL1       -0.0435
     10 C           4.8549   -2.3466    0.0000 C.3     1  UNL1       -0.0456
     11 C           4.4492    0.3561    0.0000 C.3     1  UNL1       -0.0249
     12 C           2.7171   -0.6439    0.0000 C.3     1  UNL1       -0.0468
     13 C           2.0832   -2.6828    0.0000 C.3     1  UNL1       -0.0590
     14 C           3.5832    0.8561    0.0000 C.3     1  UNL1       -0.0198
     15 C           2.7171    0.3561    0.0000 C.3     1  UNL1       -0.0482
     16 C           5.3592    0.8629    0.0000 C.3     1  UNL1       -0.0470
     17 C           3.5671    1.8976    0.0000 C.3     1  UNL1        0.0681
     18 C           5.4340    0.1824    0.0000 C.3     1  UNL1       -0.0590
     19 C           5.3672    1.9045    0.0000 C.3     1  UNL1       -0.0515
     20 C           4.4651    2.4253    0.0000 C.3     1  UNL1       -0.0372
     21 C           2.5672    1.8860    0.0000 C.3     1  UNL1       -0.0491
     22 C           3.0571    2.7578    0.0000 C.2     1  UNL1        0.3110
     23 H           4.8194   -3.1077    0.0000 H       1  UNL1        0.0309
     24 H           3.4604   -4.3904    0.0000 H       1  UNL1        0.0309
     25 H           5.2764   -0.8395    0.0000 H       1  UNL1        0.0312
     26 H           2.2078   -1.9839    0.0000 H       1  UNL1        0.0276
     27 H           2.4641   -1.1948    0.0000 H       1  UNL1        0.0276
     28 H           4.7022   -1.1948    0.0000 H       1  UNL1        0.0274
     29 H           4.9586   -1.9839    0.0000 H       1  UNL1        0.0274
     30 H           5.4239   -2.1004    0.0000 H       1  UNL1        0.0271
     31 H           5.1962   -2.8642    0.0000 H       1  UNL1        0.0271
     32 H           2.5051   -1.2266    0.0000 H       1  UNL1        0.0271
     33 H           2.1066   -0.5363    0.0000 H       1  UNL1        0.0271
     34 H           2.0832   -3.3028    0.0000 H       1  UNL1        0.0235
     35 H           1.4632   -2.6828    0.0000 H       1  UNL1        0.0235
     36 H           2.0832   -2.0628    0.0000 H       1  UNL1        0.0235
     37 H           2.8438    1.2754    0.0000 H       1  UNL1        0.0317
     38 H           2.1066    0.2484    0.0000 H       1  UNL1        0.0269
     39 H           2.5051    0.9387    0.0000 H       1  UNL1        0.0269
     40 H           5.9708    0.9643    0.0000 H       1  UNL1        0.0271
     41 H           5.5637    0.2776    0.0000 H       1  UNL1        0.0271
     42 H           5.5416    0.7930    0.0000 H       1  UNL1        0.0235
     43 H           6.0446    0.0748    0.0000 H       1  UNL1        0.0235
     44 H           5.3264   -0.4281    0.0000 H       1  UNL1        0.0235
     45 H           5.5808    2.4866    0.0000 H       1  UNL1        0.0266
     46 H           5.9772    1.7937    0.0000 H       1  UNL1        0.0266
     47 H           4.0642    2.8982    0.0000 H       1  UNL1        0.0276
     48 H           4.8624    2.9013    0.0000 H       1  UNL1        0.0276
     49 H           2.5743    1.2660    0.0000 H       1  UNL1        0.0240
     50 H           1.9472    1.8788    0.0000 H       1  UNL1        0.0240
     51 H           2.5600    2.5060    0.0000 H       1  UNL1        0.0240
     52 H           3.2309    4.1628    0.0000 H       1  UNL1        0.2951
@<TRIPOS>BOND
     1     1    22    1
     2     1    52    1
     3     2    22    2
     4     3     4    1
     5     3     5    1
     6     3     8    1
     7     3    13    1
     8     4     5    1
     9     4     9    1
    10     4    23    1
    11     5    10    1
    12     5    24    1
    13     6     7    1
    14     6     8    1
    15     6     9    1
    16     6    12    1
    17     7    10    1
    18     7    11    1
    19     7    25    1
    20     8    26    1
    21     8    27    1
    22     9    28    1
    23     9    29    1
    24    10    30    1
    25    10    31    1
    26    11    14    1
    27    11    16    1
    28    11    18    1
    29    12    15    1
    30    12    32    1
    31    12    33    1
    32    13    34    1
    33    13    35    1
    34    13    36    1
    35    14    15    1
    36    14    17    1
    37    14    37    1
    38    15    38    1
    39    15    39    1
    40    16    19    1
    41    16    40    1
    42    16    41    1
    43    17    20    1
    44    17    21    1
    45    17    22    1
    46    18    42    1
    47    18    43    1
    48    18    44    1
    49    19    20    1
    50    19    45    1
    51    19    46    1
    52    20    47    1
    53    20    48    1
    54    21    49    1
    55    21    50    1
    56    21    51    1
