@<TRIPOS>MOLECULE
IMPHY015844
 18 17 0 0 0
SMALL
GASTEIGER

@<TRIPOS>ATOM
      1 S           5.4641    0.2500    0.0000 S.3     1  UNL1       -0.0811
      2 S           4.5981   -0.2500    0.0000 S.3     1  UNL1       -0.0129
      3 S           3.7320    0.2500    0.0000 S.3     1  UNL1       -0.0132
      4 S           2.8660   -0.2500    0.0000 S.3     1  UNL1       -0.0845
      5 C           7.1962    0.2500    0.0000 C.3     1  UNL1       -0.0460
      6 C           6.3301   -0.2500    0.0000 C.3     1  UNL1        0.0045
      7 C           8.0622   -0.2500    0.0000 C.3     1  UNL1       -0.0645
      8 C           2.0000    0.2500    0.0000 C.3     1  UNL1       -0.0070
      9 H           7.5947    0.7249    0.0000 H       1  UNL1        0.0271
     10 H           6.7976    0.7249    0.0000 H       1  UNL1        0.0271
     11 H           5.9316   -0.7249    0.0000 H       1  UNL1        0.0385
     12 H           6.7287   -0.7249    0.0000 H       1  UNL1        0.0385
     13 H           7.7522   -0.7869    0.0000 H       1  UNL1        0.0230
     14 H           8.5991   -0.5600    0.0000 H       1  UNL1        0.0230
     15 H           8.3722    0.2869    0.0000 H       1  UNL1        0.0230
     16 H           2.3100    0.7869    0.0000 H       1  UNL1        0.0349
     17 H           1.4631    0.5600    0.0000 H       1  UNL1        0.0349
     18 H           1.6900   -0.2869    0.0000 H       1  UNL1        0.0349
@<TRIPOS>BOND
     1     1     2    1
     2     1     6    1
     3     2     3    1
     4     3     4    1
     5     4     8    1
     6     5     6    1
     7     5     7    1
     8     5     9    1
     9     5    10    1
    10     6    11    1
    11     6    12    1
    12     7    13    1
    13     7    14    1
    14     7    15    1
    15     8    16    1
    16     8    17    1
    17     8    18    1
