@<TRIPOS>MOLECULE
IMPHY002727
 80 84 0 0 0
SMALL
GASTEIGER

@<TRIPOS>ATOM
      1 O           2.5357   -2.5933    0.0000 O.3     1  UNL1       -0.3908
      2 O           4.3792    0.5161    0.0000 O.2     1  UNL1       -0.2967
      3 O          11.4608    0.4932    0.0000 O.3     1  UNL1       -0.4802
      4 O          10.6064   -1.0134    0.0000 O.2     1  UNL1       -0.2504
      5 C           7.0628   -1.0410    0.0000 C.3     1  UNL1       -0.0190
      6 C           6.1968   -0.5410    0.0000 C.3     1  UNL1       -0.0190
      7 C           7.9288   -0.5410    0.0000 C.3     1  UNL1       -0.0051
      8 C           5.2868   -1.0478    0.0000 C.3     1  UNL1        0.0333
      9 C           5.2787   -2.0894    0.0000 C.3     1  UNL1       -0.0211
     10 C           7.0789   -2.0825    0.0000 C.3     1  UNL1       -0.0462
     11 C           7.9288    0.4590    0.0000 C.2     1  UNL1       -0.0629
     12 C           8.8228    0.9937    0.0000 C.3     1  UNL1       -0.0031
     13 C           6.1808   -2.6102    0.0000 C.3     1  UNL1       -0.0482
     14 C           8.8228   -1.0756    0.0000 C.3     1  UNL1       -0.0424
     15 C           9.7288    0.4799    0.0000 C.3     1  UNL1        0.0741
     16 C           6.1968    0.4590    0.0000 C.3     1  UNL1       -0.0302
     17 C           4.3433   -2.6391    0.0000 C.3     1  UNL1       -0.0048
     18 C           9.7288   -0.5618    0.0000 C.3     1  UNL1       -0.0359
     19 C           7.7056   -1.8070    0.0000 C.3     1  UNL1       -0.0585
     20 C           7.0628    0.9590    0.0000 C.2     1  UNL1       -0.0836
     21 C           4.3599   -0.4837    0.0000 C.2     1  UNL1        0.1422
     22 C           8.2709   -1.4806    0.0000 C.3     1  UNL1       -0.0553
     23 C           8.7977    2.0784    0.0000 C.3     1  UNL1       -0.0403
     24 C           5.2945   -0.0478    0.0000 C.3     1  UNL1       -0.0523
     25 C           3.4037   -2.0966    0.0000 C.3     1  UNL1        0.0673
     26 C          10.6726    1.0151    0.0000 C.3     1  UNL1       -0.0362
     27 C           9.7288    2.6353    0.0000 C.3     1  UNL1       -0.0343
     28 C           3.4120   -1.0117    0.0000 C.3     1  UNL1        0.0329
     29 C          10.6726    2.1001    0.0000 C.3     1  UNL1       -0.0468
     30 C           3.8467   -3.5071    0.0000 C.3     1  UNL1       -0.0572
     31 C           4.8466   -3.5032    0.0000 C.3     1  UNL1       -0.0572
     32 C          10.5987   -0.0135    0.0000 C.2     1  UNL1        0.3115
     33 C          10.2188    3.5071    0.0000 C.3     1  UNL1       -0.0598
     34 C           9.2188    3.4955    0.0000 C.3     1  UNL1       -0.0598
     35 H           6.9329   -0.1160    0.0000 H       1  UNL1        0.0319
     36 H           5.2820   -2.9394    0.0000 H       1  UNL1        0.0316
     37 H           7.2969   -2.6629    0.0000 H       1  UNL1        0.0271
     38 H           7.6880   -1.9670    0.0000 H       1  UNL1        0.0271
     39 H           9.5522    1.4300    0.0000 H       1  UNL1        0.0357
     40 H           5.7835   -3.0862    0.0000 H       1  UNL1        0.0269
     41 H           6.5818   -3.0831    0.0000 H       1  UNL1        0.0269
     42 H           8.4182   -1.5454    0.0000 H       1  UNL1        0.0274
     43 H           9.2164   -1.5546    0.0000 H       1  UNL1        0.0274
     44 H           5.9847    1.0416    0.0000 H       1  UNL1        0.0311
     45 H           5.5862    0.3514    0.0000 H       1  UNL1        0.0311
     46 H           9.9379   -1.1455    0.0000 H       1  UNL1        0.0276
     47 H          10.3397   -0.4557    0.0000 H       1  UNL1        0.0276
     48 H           7.2306   -2.2055    0.0000 H       1  UNL1        0.0235
     49 H           8.1041   -2.2820    0.0000 H       1  UNL1        0.0235
     50 H           8.1805   -1.4085    0.0000 H       1  UNL1        0.0235
     51 H           7.0628    1.5790    0.0000 H       1  UNL1        0.0572
     52 H           7.6884   -1.6927    0.0000 H       1  UNL1        0.0238
     53 H           8.4830   -2.0632    0.0000 H       1  UNL1        0.0238
     54 H           8.8535   -1.2685    0.0000 H       1  UNL1        0.0238
     55 H           8.5752    2.6571    0.0000 H       1  UNL1        0.0276
     56 H           8.1894    1.9582    0.0000 H       1  UNL1        0.0276
     57 H           5.9145   -0.0526    0.0000 H       1  UNL1        0.0239
     58 H           5.2993    0.5721    0.0000 H       1  UNL1        0.0239
     59 H           4.6745   -0.0431    0.0000 H       1  UNL1        0.0239
     60 H           3.4025   -2.7166    0.0000 H       1  UNL1        0.0603
     61 H          10.8817    0.4314    0.0000 H       1  UNL1        0.0276
     62 H          11.2835    1.1212    0.0000 H       1  UNL1        0.0276
     63 H           3.2075   -0.4264    0.0000 H       1  UNL1        0.0367
     64 H           2.8004   -1.1131    0.0000 H       1  UNL1        0.0367
     65 H          11.2835    1.9940    0.0000 H       1  UNL1        0.0271
     66 H          10.8817    2.6838    0.0000 H       1  UNL1        0.0271
     67 H           4.3109   -3.8153    0.0000 H       1  UNL1        0.0236
     68 H           5.1587   -4.0390    0.0000 H       1  UNL1        0.0236
     69 H           5.3824   -3.1912    0.0000 H       1  UNL1        0.0236
     70 H           3.3085   -3.1992    0.0000 H       1  UNL1        0.0236
     71 H           3.5387   -4.0452    0.0000 H       1  UNL1        0.0236
     72 H           4.3848   -3.8150    0.0000 H       1  UNL1        0.0236
     73 H           9.7522    3.8117    0.0000 H       1  UNL1        0.0235
     74 H           8.9027    4.0288    0.0000 H       1  UNL1        0.0235
     75 H           8.6855    3.1793    0.0000 H       1  UNL1        0.0235
     76 H          10.7593    3.2033    0.0000 H       1  UNL1        0.0235
     77 H          10.5226    4.0476    0.0000 H       1  UNL1        0.0235
     78 H           9.6783    3.8108    0.0000 H       1  UNL1        0.0235
     79 H           2.0000   -2.2812    0.0000 H       1  UNL1        0.2098
     80 H          12.0001    0.1874    0.0000 H       1  UNL1        0.2951
@<TRIPOS>BOND
     1    25     1    1
     2     1    79    1
     3     2    21    2
     4     3    32    1
     5     3    80    1
     6     4    32    2
     7     5     6    1
     8     5     7    1
     9     5    10    1
    10     5    19    1
    11     6     8    1
    12     6    16    1
    13     6    35    1
    14     7    11    1
    15     7    14    1
    16     7    22    1
    17     8     9    1
    18     8    21    1
    19     8    24    1
    20     9    13    1
    21     9    17    1
    22     9    36    1
    23    10    13    1
    24    10    37    1
    25    10    38    1
    26    11    12    1
    27    11    20    2
    28    12    15    1
    29    12    23    1
    30    12    39    1
    31    13    40    1
    32    13    41    1
    33    14    18    1
    34    14    42    1
    35    14    43    1
    36    15    18    1
    37    15    26    1
    38    15    32    1
    39    16    20    1
    40    16    44    1
    41    16    45    1
    42    17    25    1
    43    17    30    1
    44    17    31    1
    45    18    46    1
    46    18    47    1
    47    19    48    1
    48    19    49    1
    49    19    50    1
    50    20    51    1
    51    21    28    1
    52    22    52    1
    53    22    53    1
    54    22    54    1
    55    23    27    1
    56    23    55    1
    57    23    56    1
    58    24    57    1
    59    24    58    1
    60    24    59    1
    61    25    28    1
    62    25    60    1
    63    26    29    1
    64    26    61    1
    65    26    62    1
    66    27    29    1
    67    27    33    1
    68    27    34    1
    69    28    63    1
    70    28    64    1
    71    29    65    1
    72    29    66    1
    73    30    70    1
    74    30    71    1
    75    30    72    1
    76    31    67    1
    77    31    68    1
    78    31    69    1
    79    33    76    1
    80    33    77    1
    81    33    78    1
    82    34    73    1
    83    34    74    1
    84    34    75    1
