@<TRIPOS>MOLECULE
IMPHY014844
 123 129 0 0 0
SMALL
GASTEIGER

@<TRIPOS>ATOM
      1 O           7.1962   -1.6428    0.0000 O.3     1  UNL1       -0.3449
      2 O           8.9500    7.6366    0.0000 O.3     1  UNL1       -0.4802
      3 O           9.8333    6.1467    0.0000 O.2     1  UNL1       -0.2504
      4 O           5.4641   -1.6428    0.0000 O.3     1  UNL1       -0.3405
      5 O           7.1962   -3.6428    0.0000 O.3     1  UNL1       -0.3841
      6 O           5.4641   -4.6428    0.0000 O.3     1  UNL1       -0.3864
      7 O           3.7320   -3.6428    0.0000 O.3     1  UNL1       -0.3401
      8 O           3.7320   -0.6428    0.0000 O.3     1  UNL1       -0.3924
      9 O           4.5981   -5.1428    0.0000 O.3     1  UNL1       -0.3405
     10 O           2.0000   -4.6428    0.0000 O.3     1  UNL1       -0.3841
     11 O           2.0000   -6.6428    0.0000 O.3     1  UNL1       -0.3864
     12 O           3.7320   -7.6428    0.0000 O.3     1  UNL1       -0.3865
     13 O           6.3301   -6.1428    0.0000 O.3     1  UNL1       -0.3924
     14 C           8.0972    3.0574    0.0000 C.3     1  UNL1       -0.0231
     15 C           8.0934    4.0574    0.0000 C.3     1  UNL1       -0.0232
     16 C           7.2331    2.5541    0.0000 C.3     1  UNL1       -0.0294
     17 C           7.2254    4.5541    0.0000 C.3     1  UNL1       -0.0307
     18 C           7.2211    1.5125    0.0000 C.3     1  UNL1       -0.0252
     19 C           7.2053    5.5955    0.0000 C.3     1  UNL1       -0.0154
     20 C           8.1211    0.9882    0.0000 C.3     1  UNL1       -0.0278
     21 C           8.1013    6.1267    0.0000 C.3     1  UNL1        0.0712
     22 C           9.0092    2.5541    0.0000 C.3     1  UNL1       -0.0466
     23 C           6.3652    3.0507    0.0000 C.3     1  UNL1       -0.0489
     24 C           9.0014    4.5678    0.0000 C.3     1  UNL1       -0.0458
     25 C           6.3613    4.0507    0.0000 C.3     1  UNL1       -0.0491
     26 C           9.0212    1.5125    0.0000 C.3     1  UNL1       -0.0486
     27 C           9.0054    5.6094    0.0000 C.3     1  UNL1       -0.0364
     28 C           8.1337   -0.0967    0.0000 C.3     1  UNL1       -0.0052
     29 C           6.4297    6.2814    0.0000 C.3     1  UNL1       -0.0163
     30 C           6.2712    0.9882    0.0000 C.3     1  UNL1       -0.0447
     31 C           9.0813    3.2348    0.0000 C.3     1  UNL1       -0.0588
     32 C           9.0788    3.8876    0.0000 C.3     1  UNL1       -0.0588
     33 C           7.8717    7.1364    0.0000 C.3     1  UNL1       -0.0364
     34 C           6.3570    2.0158    0.0000 C.3     1  UNL1       -0.0590
     35 C           6.8407    7.2318    0.0000 C.3     1  UNL1       -0.0452
     36 C           7.1962   -0.6428    0.0000 C.3     1  UNL1        0.0672
     37 C           6.2586   -0.0967    0.0000 C.3     1  UNL1       -0.0255
     38 C           8.9615    6.6367    0.0000 C.2     1  UNL1        0.3112
     39 C           9.1337   -0.0890    0.0000 C.3     1  UNL1       -0.0572
     40 C           8.6404   -0.9588    0.0000 C.3     1  UNL1       -0.0572
     41 C           5.4536    6.0639    0.0000 C.2     1  UNL1       -0.0763
     42 C           4.7772    6.8004    0.0000 C.3     1  UNL1       -0.0438
     43 C           5.1540    5.1099    0.0000 C.2     1  UNL1       -0.0994
     44 C           6.3301   -2.1428    0.0000 C.3     1  UNL1        0.1882
     45 C           6.3301   -3.1428    0.0000 C.3     1  UNL1        0.1341
     46 C           5.4641   -3.6428    0.0000 C.3     1  UNL1        0.1144
     47 C           4.5981   -2.1428    0.0000 C.3     1  UNL1        0.1134
     48 C           4.5981   -3.1428    0.0000 C.3     1  UNL1        0.1184
     49 C           3.7320   -1.6428    0.0000 C.3     1  UNL1        0.0730
     50 C           3.7320   -4.6428    0.0000 C.3     1  UNL1        0.1884
     51 C           2.8660   -5.1428    0.0000 C.3     1  UNL1        0.1341
     52 C           2.8660   -6.1428    0.0000 C.3     1  UNL1        0.1141
     53 C           4.5981   -6.1428    0.0000 C.3     1  UNL1        0.1130
     54 C           3.7320   -6.6428    0.0000 C.3     1  UNL1        0.1119
     55 C           5.4641   -6.6428    0.0000 C.3     1  UNL1        0.0730
     56 H           7.9676    2.1262    0.0000 H       1  UNL1        0.0312
     57 H           6.4844    4.9705    0.0000 H       1  UNL1        0.0309
     58 H           6.4338    5.2388    0.0000 H       1  UNL1        0.0320
     59 H           8.8605    0.5689    0.0000 H       1  UNL1        0.0312
     60 H           9.6212    2.4550    0.0000 H       1  UNL1        0.0271
     61 H           9.2114    3.1402    0.0000 H       1  UNL1        0.0271
     62 H           5.7542    3.1560    0.0000 H       1  UNL1        0.0268
     63 H           6.1554    2.4673    0.0000 H       1  UNL1        0.0268
     64 H           9.2082    3.9833    0.0000 H       1  UNL1        0.0271
     65 H           9.6127    4.6715    0.0000 H       1  UNL1        0.0271
     66 H           6.1470    4.6325    0.0000 H       1  UNL1        0.0268
     67 H           5.7512    3.9407    0.0000 H       1  UNL1        0.0268
     68 H           9.2370    0.9313    0.0000 H       1  UNL1        0.0268
     69 H           9.6308    1.6257    0.0000 H       1  UNL1        0.0268
     70 H           9.6159    5.5009    0.0000 H       1  UNL1        0.0276
     71 H           9.2167    6.1923    0.0000 H       1  UNL1        0.0276
     72 H           6.0346    6.7592    0.0000 H       1  UNL1        0.0348
     73 H           6.0689    1.5743    0.0000 H       1  UNL1        0.0271
     74 H           5.6591    0.8892    0.0000 H       1  UNL1        0.0271
     75 H           9.1914    2.6247    0.0000 H       1  UNL1        0.0235
     76 H           9.6915    3.3449    0.0000 H       1  UNL1        0.0235
     77 H           8.9713    3.8450    0.0000 H       1  UNL1        0.0235
     78 H           8.9735    3.2766    0.0000 H       1  UNL1        0.0235
     79 H           9.6898    3.7822    0.0000 H       1  UNL1        0.0235
     80 H           9.1841    4.4985    0.0000 H       1  UNL1        0.0235
     81 H           8.4874    7.2096    0.0000 H       1  UNL1        0.0276
     82 H           7.8637    7.7563    0.0000 H       1  UNL1        0.0276
     83 H           6.6690    2.5516    0.0000 H       1  UNL1        0.0235
     84 H           5.8212    2.3279    0.0000 H       1  UNL1        0.0235
     85 H           6.0449    1.4801    0.0000 H       1  UNL1        0.0235
     86 H           6.9624    7.8398    0.0000 H       1  UNL1        0.0271
     87 H           6.2489    7.4168    0.0000 H       1  UNL1        0.0271
     88 H           7.7337   -0.9518    0.0000 H       1  UNL1        0.0602
     89 H           5.6490    0.0165    0.0000 H       1  UNL1        0.0290
     90 H           6.0428   -0.6779    0.0000 H       1  UNL1        0.0290
     91 H           9.1384   -0.7090    0.0000 H       1  UNL1        0.0236
     92 H           9.7536   -0.0842    0.0000 H       1  UNL1        0.0236
     93 H           9.1289    0.5310    0.0000 H       1  UNL1        0.0236
     94 H           8.1058   -1.2730    0.0000 H       1  UNL1        0.0236
     95 H           8.9545   -1.4934    0.0000 H       1  UNL1        0.0236
     96 H           9.1749   -0.6447    0.0000 H       1  UNL1        0.0236
     97 H           5.2338    7.2198    0.0000 H       1  UNL1        0.0274
     98 H           4.3578    7.2571    0.0000 H       1  UNL1        0.0274
     99 H           4.3206    6.3811    0.0000 H       1  UNL1        0.0274
    100 H           9.4833    7.9528    0.0000 H       1  UNL1        0.2951
    101 H           4.5488    4.9750    0.0000 H       1  UNL1        0.0534
    102 H           5.5733    4.6532    0.0000 H       1  UNL1        0.0534
    103 H           6.8671   -2.4528    0.0000 H       1  UNL1        0.0937
    104 H           6.3301   -3.7628    0.0000 H       1  UNL1        0.0671
    105 H           4.9272   -3.9528    0.0000 H       1  UNL1        0.0648
    106 H           4.5981   -1.5228    0.0000 H       1  UNL1        0.0647
    107 H           4.5981   -3.7628    0.0000 H       1  UNL1        0.0651
    108 H           7.7331   -3.3328    0.0000 H       1  UNL1        0.2101
    109 H           3.1215   -1.5352    0.0000 H       1  UNL1        0.0584
    110 H           3.5200   -2.2254    0.0000 H       1  UNL1        0.0584
    111 H           6.0010   -4.9528    0.0000 H       1  UNL1        0.2100
    112 H           3.1951   -4.3328    0.0000 H       1  UNL1        0.0938
    113 H           3.1951   -0.3328    0.0000 H       1  UNL1        0.2095
    114 H           2.8660   -4.5228    0.0000 H       1  UNL1        0.0671
    115 H           2.8660   -6.7628    0.0000 H       1  UNL1        0.0648
    116 H           5.1350   -5.8328    0.0000 H       1  UNL1        0.0647
    117 H           4.2690   -6.9528    0.0000 H       1  UNL1        0.0647
    118 H           2.0000   -4.0228    0.0000 H       1  UNL1        0.2101
    119 H           5.0656   -7.1178    0.0000 H       1  UNL1        0.0584
    120 H           5.8626   -7.1178    0.0000 H       1  UNL1        0.0584
    121 H           2.0000   -7.2628    0.0000 H       1  UNL1        0.2100
    122 H           4.2690   -7.9528    0.0000 H       1  UNL1        0.2100
    123 H           6.8671   -6.4528    0.0000 H       1  UNL1        0.2095
@<TRIPOS>BOND
     1    36     1    1
     2    44     1    1
     3     2    38    1
     4     2   100    1
     5     3    38    2
     6     4    44    1
     7     4    47    1
     8    45     5    1
     9     5   108    1
    10    46     6    1
    11     6   111    1
    12    48     7    1
    13    50     7    1
    14     8    49    1
    15     8   113    1
    16     9    50    1
    17     9    53    1
    18    51    10    1
    19    10   118    1
    20    52    11    1
    21    11   121    1
    22    54    12    1
    23    12   122    1
    24    13    55    1
    25    13   123    1
    26    14    15    1
    27    14    16    1
    28    14    22    1
    29    14    31    1
    30    15    17    1
    31    15    24    1
    32    15    32    1
    33    16    18    1
    34    16    23    1
    35    16    56    1
    36    17    19    1
    37    17    25    1
    38    17    57    1
    39    18    20    1
    40    18    30    1
    41    18    34    1
    42    19    21    1
    43    19    29    1
    44    19    58    1
    45    20    26    1
    46    20    28    1
    47    20    59    1
    48    21    27    1
    49    21    33    1
    50    21    38    1
    51    22    26    1
    52    22    60    1
    53    22    61    1
    54    23    25    1
    55    23    62    1
    56    23    63    1
    57    24    27    1
    58    24    64    1
    59    24    65    1
    60    25    66    1
    61    25    67    1
    62    26    68    1
    63    26    69    1
    64    27    70    1
    65    27    71    1
    66    28    36    1
    67    28    39    1
    68    28    40    1
    69    29    35    1
    70    29    41    1
    71    29    72    1
    72    30    37    1
    73    30    73    1
    74    30    74    1
    75    31    75    1
    76    31    76    1
    77    31    77    1
    78    32    78    1
    79    32    79    1
    80    32    80    1
    81    33    35    1
    82    33    81    1
    83    33    82    1
    84    34    83    1
    85    34    84    1
    86    34    85    1
    87    35    86    1
    88    35    87    1
    89    36    37    1
    90    36    88    1
    91    37    89    1
    92    37    90    1
    93    39    91    1
    94    39    92    1
    95    39    93    1
    96    40    94    1
    97    40    95    1
    98    40    96    1
    99    41    42    1
   100    41    43    2
   101    42    97    1
   102    42    98    1
   103    42    99    1
   104    43   101    1
   105    43   102    1
   106    44    45    1
   107    44   103    1
   108    45    46    1
   109    45   104    1
   110    46    48    1
   111    46   105    1
   112    47    48    1
   113    47    49    1
   114    47   106    1
   115    48   107    1
   116    49   109    1
   117    49   110    1
   118    50    51    1
   119    50   112    1
   120    51    52    1
   121    51   114    1
   122    52    54    1
   123    52   115    1
   124    53    54    1
   125    53    55    1
   126    53   116    1
   127    54   117    1
   128    55   119    1
   129    55   120    1
