@<TRIPOS>MOLECULE
IMPHY015108
 30 30 0 0 0
SMALL
GASTEIGER

@<TRIPOS>ATOM
      1 O           2.8660    0.2500    0.0000 O.3     1  UNL1       -0.4942
      2 O           4.5981   -2.7500    0.0000 O.3     1  UNL1       -0.4949
      3 O           6.3301    0.2500    0.0000 O.3     1  UNL1       -0.5058
      4 O           3.7320    1.7500    0.0000 O.2     1  UNL1       -0.2870
      5 C           4.5981    0.2500    0.0000 C.ar    1  UNL1        0.1047
      6 C           3.7320   -0.2500    0.0000 C.ar    1  UNL1        0.1379
      7 C           5.4641   -0.2500    0.0000 C.ar    1  UNL1        0.1346
      8 C           4.5981   -1.7500    0.0000 C.ar    1  UNL1        0.1271
      9 C           3.7320   -1.2500    0.0000 C.ar    1  UNL1        0.0227
     10 C           5.4641   -1.2500    0.0000 C.ar    1  UNL1        0.0225
     11 C           4.5981    1.2500    0.0000 C.2     1  UNL1        0.1928
     12 C           5.4641    1.7500    0.0000 C.2     1  UNL1       -0.0183
     13 C           2.0000   -0.2500    0.0000 C.3     1  UNL1        0.0788
     14 C           5.4641    2.7500    0.0000 C.2     1  UNL1       -0.0835
     15 C           5.4641   -3.2500    0.0000 C.3     1  UNL1        0.0788
     16 C           6.3301    3.2500    0.0000 C.3     1  UNL1       -0.0464
     17 H           3.1951   -1.5600    0.0000 H       1  UNL1        0.0691
     18 H           6.0010   -1.5600    0.0000 H       1  UNL1        0.0691
     19 H           6.0010    1.4400    0.0000 H       1  UNL1        0.0653
     20 H           6.8671   -0.0600    0.0000 H       1  UNL1        0.2922
     21 H           1.6900    0.2869    0.0000 H       1  UNL1        0.0660
     22 H           1.4631   -0.5600    0.0000 H       1  UNL1        0.0660
     23 H           2.3100   -0.7869    0.0000 H       1  UNL1        0.0660
     24 H           4.9272    3.0600    0.0000 H       1  UNL1        0.0570
     25 H           5.1541   -3.7869    0.0000 H       1  UNL1        0.0660
     26 H           6.0010   -3.5600    0.0000 H       1  UNL1        0.0660
     27 H           5.7741   -2.7131    0.0000 H       1  UNL1        0.0660
     28 H           6.6401    2.7131    0.0000 H       1  UNL1        0.0272
     29 H           6.8671    3.5600    0.0000 H       1  UNL1        0.0272
     30 H           6.0201    3.7869    0.0000 H       1  UNL1        0.0272
@<TRIPOS>BOND
     1     1     6    1
     2     1    13    1
     3     2     8    1
     4     2    15    1
     5     3     7    1
     6     3    20    1
     7     4    11    2
     8     5     6   ar
     9     5     7   ar
    10     5    11    1
    11     6     9   ar
    12     7    10   ar
    13     8     9   ar
    14     8    10   ar
    15     9    17    1
    16    10    18    1
    17    11    12    1
    18    12    14    2
    19    12    19    1
    20    13    21    1
    21    13    22    1
    22    13    23    1
    23    14    16    1
    24    14    24    1
    25    15    25    1
    26    15    26    1
    27    15    27    1
    28    16    28    1
    29    16    29    1
    30    16    30    1
