@<TRIPOS>MOLECULE
IMPHY009398
 52 54 0 0 0
SMALL
GASTEIGER

@<TRIPOS>ATOM
      1 O           3.7320   -3.0081    0.0000 O.3     1  UNL1       -0.3941
      2 O           6.3406   -3.5527    0.0000 O.3     1  UNL1       -0.4773
      3 O           4.6087   -3.5327    0.0000 O.2     1  UNL1       -0.2455
      4 O           2.0296    3.6726    0.0000 O.2     1  UNL1       -0.4708
      5 C           3.7320   -0.0081    0.0000 C.3     1  UNL1       -0.0255
      6 C           4.5981   -0.5081    0.0000 C.3     1  UNL1       -0.0231
      7 C           4.5981   -1.5081    0.0000 C.3     1  UNL1        0.0286
      8 C           2.8660   -0.5081    0.0000 C.3     1  UNL1       -0.0382
      9 C           3.7320   -2.0081    0.0000 C.3     1  UNL1       -0.0405
     10 C           2.8660   -1.5081    0.0000 C.3     1  UNL1       -0.0491
     11 C           5.4920    0.0266    0.0000 C.3     1  UNL1       -0.0454
     12 C           3.2320    0.8579    0.0000 C.3     1  UNL1       -0.0430
     13 C           5.4920   -2.0428    0.0000 C.2     1  UNL1        0.0411
     14 C           4.2320    0.8579    0.0000 C.3     1  UNL1       -0.0590
     15 C           4.5981   -2.5081    0.0000 C.3     1  UNL1        0.0543
     16 C           6.3981   -0.4873    0.0000 C.3     1  UNL1       -0.0337
     17 C           2.0000   -0.0081    0.0000 C.3     1  UNL1       -0.0619
     18 C           6.3981   -1.5289    0.0000 C.2     1  UNL1       -0.0734
     19 C           3.7320    1.7239    0.0000 C.3     1  UNL1       -0.0242
     20 C           5.4804   -3.0427    0.0000 C.2     1  UNL1        0.3331
     21 C           3.2320    2.5900    0.0000 C.ar    1  UNL1       -0.0097
     22 C           3.6388    3.5035    0.0000 C.ar    1  UNL1       -0.0208
     23 C           2.2375    2.6945    0.0000 C.ar    1  UNL1        0.0948
     24 C           2.8956    4.1726    0.0000 C.ar    1  UNL1        0.0919
     25 H           4.5915    0.3419    0.0000 H       1  UNL1        0.0315
     26 H           2.8660    0.1119    0.0000 H       1  UNL1        0.0303
     27 H           3.3335   -2.4831    0.0000 H       1  UNL1        0.0275
     28 H           4.1306   -2.4831    0.0000 H       1  UNL1        0.0275
     29 H           2.2554   -1.4004    0.0000 H       1  UNL1        0.0268
     30 H           2.6540   -2.0907    0.0000 H       1  UNL1        0.0268
     31 H           5.8856    0.5056    0.0000 H       1  UNL1        0.0271
     32 H           5.0874    0.4963    0.0000 H       1  UNL1        0.0271
     33 H           2.7571    1.2564    0.0000 H       1  UNL1        0.0274
     34 H           2.7571    0.4594    0.0000 H       1  UNL1        0.0274
     35 H           4.7690    0.5479    0.0000 H       1  UNL1        0.0235
     36 H           4.5420    1.3948    0.0000 H       1  UNL1        0.0235
     37 H           3.6951    1.1679    0.0000 H       1  UNL1        0.0235
     38 H           4.8101   -3.0907    0.0000 H       1  UNL1        0.0566
     39 H           5.2087   -2.4005    0.0000 H       1  UNL1        0.0566
     40 H           7.0089   -0.5934    0.0000 H       1  UNL1        0.0308
     41 H           6.6071    0.0964    0.0000 H       1  UNL1        0.0308
     42 H           2.3100    0.5288    0.0000 H       1  UNL1        0.0233
     43 H           1.4631    0.3019    0.0000 H       1  UNL1        0.0233
     44 H           1.6900   -0.5450    0.0000 H       1  UNL1        0.0233
     45 H           6.9338   -1.8410    0.0000 H       1  UNL1        0.0577
     46 H           4.2070    1.3254    0.0000 H       1  UNL1        0.0314
     47 H           4.2070    2.1225    0.0000 H       1  UNL1        0.0314
     48 H           3.7320   -3.6281    0.0000 H       1  UNL1        0.2094
     49 H           6.3335   -4.1726    0.0000 H       1  UNL1        0.2954
     50 H           4.2452    3.6324    0.0000 H       1  UNL1        0.0652
     51 H           1.8227    2.2338    0.0000 H       1  UNL1        0.1032
     52 H           2.9604    4.7892    0.0000 H       1  UNL1        0.1029
@<TRIPOS>BOND
     1     1    15    1
     2     1    48    1
     3     2    20    1
     4     2    49    1
     5     3    20    2
     6     4    23   ar
     7     4    24   ar
     8     5     6    1
     9     5     8    1
    10     5    12    1
    11     5    14    1
    12     6     7    1
    13     6    11    1
    14     6    25    1
    15     7     9    1
    16     7    13    1
    17     7    15    1
    18     8    10    1
    19     8    17    1
    20     8    26    1
    21     9    10    1
    22     9    27    1
    23     9    28    1
    24    10    29    1
    25    10    30    1
    26    11    16    1
    27    11    31    1
    28    11    32    1
    29    12    19    1
    30    12    33    1
    31    12    34    1
    32    13    18    2
    33    13    20    1
    34    14    35    1
    35    14    36    1
    36    14    37    1
    37    15    38    1
    38    15    39    1
    39    16    18    1
    40    16    40    1
    41    16    41    1
    42    17    42    1
    43    17    43    1
    44    17    44    1
    45    18    45    1
    46    19    21    1
    47    19    46    1
    48    19    47    1
    49    21    22   ar
    50    21    23   ar
    51    22    24   ar
    52    22    50    1
    53    23    51    1
    54    24    52    1
