@<TRIPOS>MOLECULE
IMPHY000842
 71 75 0 0 0
SMALL
GASTEIGER

@<TRIPOS>ATOM
      1 P           5.0474    0.1419    0.0000 P.3     1  UNL1        0.4835
      2 P           5.4104    1.8354    0.0000 P.3     1  UNL1        0.4835
      3 O           4.4026   -3.3113    0.0000 O.3     1  UNL1       -0.3456
      4 O           7.4382    4.1647    0.0000 O.3     1  UNL1       -0.3597
      5 O           6.7523   -2.2276    0.0000 O.3     1  UNL1       -0.3864
      6 O           6.7485   -4.4032    0.0000 O.3     1  UNL1       -0.3847
      7 O           5.3248    5.6578    0.0000 O.3     1  UNL1       -0.3865
      8 O           7.2108    6.7423    0.0000 O.3     1  UNL1       -0.3862
      9 O           5.3548   -0.8097    0.0000 O.3     1  UNL1       -0.2837
     10 O           6.0809    2.5774    0.0000 O.3     1  UNL1       -0.2837
     11 O           4.7400    1.0934    0.0000 O.3     1  UNL1       -0.1861
     12 O           5.9990    0.4492    0.0000 O.3     1  UNL1       -0.3022
     13 O           4.6685    2.5058    0.0000 O.3     1  UNL1       -0.3022
     14 O           4.0958   -0.1655    0.0000 O.2     1  UNL1       -0.2269
     15 O           6.1524    1.1650    0.0000 O.2     1  UNL1       -0.2269
     16 O           9.7571    8.1354    0.0000 O.2     1  UNL1       -0.2687
     17 N           4.6783   -5.0719    0.0000 N.ar    1  UNL1       -0.2855
     18 N           4.6783   -6.6813    0.0000 N.ar    1  UNL1       -0.2306
     19 N           9.1357    6.2343    0.0000 N.ar    1  UNL1       -0.2443
     20 N           2.8660   -4.8766    0.0000 N.ar    1  UNL1       -0.2159
     21 N           2.0000   -6.3766    0.0000 N.ar    1  UNL1       -0.2188
     22 N           2.8660   -7.8766    0.0000 N.pl3   1  UNL1       -0.3413
     23 N          11.4034    7.5973    0.0000 N.am    1  UNL1       -0.3241
     24 C           5.9422   -2.8140    0.0000 C.3     1  UNL1        0.1135
     25 C           5.9405   -3.8140    0.0000 C.3     1  UNL1        0.1285
     26 C           4.9917   -2.5033    0.0000 C.3     1  UNL1        0.1134
     27 C           4.9889   -4.1213    0.0000 C.3     1  UNL1        0.1667
     28 C           6.2377    5.2495    0.0000 C.3     1  UNL1        0.1121
     29 C           6.4439    4.2710    0.0000 C.3     1  UNL1        0.1117
     30 C           7.1046    5.7480    0.0000 C.3     1  UNL1        0.1151
     31 C           7.8466    5.0776    0.0000 C.3     1  UNL1        0.1292
     32 C           4.6844   -1.5517    0.0000 C.3     1  UNL1        0.0879
     33 C           5.7735    3.5290    0.0000 C.3     1  UNL1        0.0878
     34 C           8.8251    5.2838    0.0000 C.ar    1  UNL1        0.0734
     35 C           3.7320   -5.3766    0.0000 C.ar    1  UNL1        0.1674
     36 C           5.2619   -5.8766    0.0000 C.ar    1  UNL1        0.1004
     37 C           3.7320   -6.3766    0.0000 C.ar    1  UNL1        0.1473
     38 C           9.4929    4.5395    0.0000 C.ar    1  UNL1       -0.0377
     39 C           2.8660   -6.8766    0.0000 C.ar    1  UNL1        0.1472
     40 C          10.4714    4.7457    0.0000 C.ar    1  UNL1       -0.0578
     41 C          10.1142    6.4405    0.0000 C.ar    1  UNL1        0.1255
     42 C          10.7821    5.6962    0.0000 C.ar    1  UNL1       -0.0312
     43 C           2.0000   -5.3766    0.0000 C.ar    1  UNL1        0.1205
     44 C          10.4249    7.3911    0.0000 C.2     1  UNL1        0.2599
     45 H           6.4942   -3.0964    0.0000 H       1  UNL1        0.0647
     46 H           6.4934   -3.5335    0.0000 H       1  UNL1        0.0665
     47 H           4.3795   -2.4053    0.0000 H       1  UNL1        0.0647
     48 H           5.4266   -4.5605    0.0000 H       1  UNL1        0.0866
     49 H           5.7552    4.8602    0.0000 H       1  UNL1        0.0647
     50 H           6.6651    3.6918    0.0000 H       1  UNL1        0.0646
     51 H           7.6838    5.9692    0.0000 H       1  UNL1        0.0650
     52 H           8.3804    4.4161    0.0000 H       1  UNL1        0.0689
     53 H           4.3035   -1.0625    0.0000 H       1  UNL1        0.0592
     54 H           4.1364   -1.8418    0.0000 H       1  UNL1        0.0592
     55 H           5.3926    4.0182    0.0000 H       1  UNL1        0.0592
     56 H           5.2256    3.2389    0.0000 H       1  UNL1        0.0592
     57 H           7.3182   -2.4808    0.0000 H       1  UNL1        0.2100
     58 H           7.3154   -4.1520    0.0000 H       1  UNL1        0.2101
     59 H           5.8819   -5.8766    0.0000 H       1  UNL1        0.1030
     60 H           5.2611    6.2745    0.0000 H       1  UNL1        0.2100
     61 H           6.7099    7.1076    0.0000 H       1  UNL1        0.2100
     62 H           9.3003    3.9502    0.0000 H       1  UNL1        0.0636
     63 H          10.8855    4.2842    0.0000 H       1  UNL1        0.0619
     64 H          11.3888    5.8241    0.0000 H       1  UNL1        0.0640
     65 H           1.4631   -5.0666    0.0000 H       1  UNL1        0.1048
     66 H           6.4590    0.0336    0.0000 H       1  UNL1        0.2220
     67 H           4.0785    2.3153    0.0000 H       1  UNL1        0.2220
     68 H           2.3291   -8.1866    0.0000 H       1  UNL1        0.1438
     69 H           3.4030   -8.1866    0.0000 H       1  UNL1        0.1438
     70 H          11.5960    8.1866    0.0000 H       1  UNL1        0.1453
     71 H          11.8175    7.1358    0.0000 H       1  UNL1        0.1453
@<TRIPOS>BOND
     1     1     9    1
     2     1    11    1
     3     1    12    1
     4     1    14    2
     5     2    10    1
     6     2    11    1
     7     2    13    1
     8     2    15    2
     9     3    26    1
    10     3    27    1
    11     4    29    1
    12     4    31    1
    13    24     5    1
    14     5    57    1
    15    25     6    1
    16     6    58    1
    17    28     7    1
    18     7    60    1
    19    30     8    1
    20     8    61    1
    21     9    32    1
    22    10    33    1
    23    12    66    1
    24    13    67    1
    25    16    44    2
    26    27    17    1
    27    17    35   ar
    28    17    36   ar
    29    18    36   ar
    30    18    37   ar
    31    19    34   ar
    32    19    41   ar
    33    20    35   ar
    34    20    43   ar
    35    21    39   ar
    36    21    43   ar
    37    22    39    1
    38    22    68    1
    39    22    69    1
    40    23    44   am
    41    23    70    1
    42    23    71    1
    43    24    25    1
    44    24    26    1
    45    24    45    1
    46    25    27    1
    47    25    46    1
    48    26    32    1
    49    26    47    1
    50    27    48    1
    51    28    29    1
    52    28    30    1
    53    28    49    1
    54    29    33    1
    55    29    50    1
    56    30    31    1
    57    30    51    1
    58    31    34    1
    59    31    52    1
    60    32    53    1
    61    32    54    1
    62    33    55    1
    63    33    56    1
    64    34    38   ar
    65    35    37   ar
    66    36    59    1
    67    37    39   ar
    68    38    40   ar
    69    38    62    1
    70    40    42   ar
    71    40    63    1
    72    41    42   ar
    73    41    44    1
    74    42    64    1
    75    43    65    1
