@<TRIPOS>MOLECULE
IMPHY000230
 51 57 0 0 0
SMALL
GASTEIGER

@<TRIPOS>ATOM
      1 O           7.5328   -0.5440    0.0000 O.3     1  UNL1       -0.3908
      2 O           7.2254    2.4635    0.0000 O.3     1  UNL1       -0.3908
      3 O           3.8020   -2.2235    0.0000 O.3     1  UNL1       -0.3917
      4 N           3.8941    1.7839    0.0000 N.3     1  UNL1       -0.2947
      5 C           4.7882    0.2353    0.0000 C.3     1  UNL1       -0.0005
      6 C           5.2018    0.7974    0.0000 C.3     1  UNL1       -0.0118
      7 C           4.7882    1.2677    0.0000 C.3     1  UNL1        0.0228
      8 C           3.8941   -0.2809    0.0000 C.3     1  UNL1       -0.0112
      9 C           5.5954   -0.4084    0.0000 C.3     1  UNL1       -0.0005
     10 C           5.5954    1.9114    0.0000 C.3     1  UNL1        0.0081
     11 C           3.5500    0.7744    0.0000 C.3     1  UNL1        0.0152
     12 C           3.0000    0.2353    0.0000 C.3     1  UNL1       -0.0122
     13 C           4.2153    1.0038    0.0000 C.3     1  UNL1       -0.0303
     14 C           4.7889   -0.7857    0.0000 C.3     1  UNL1       -0.0191
     15 C           6.6019   -0.1787    0.0000 C.3     1  UNL1        0.0680
     16 C           3.0000    1.2677    0.0000 C.3     1  UNL1        0.0053
     17 C           6.6019    1.6817    0.0000 C.3     1  UNL1        0.0688
     18 C           7.0499    0.7515    0.0000 C.3     1  UNL1        0.0325
     19 C           5.7295    1.3021    0.0000 C.3     1  UNL1       -0.0251
     20 C           2.9993   -0.6939    0.0000 C.3     1  UNL1       -0.0199
     21 C           3.8060   -1.2236    0.0000 C.3     1  UNL1        0.0564
     22 C           6.5096    1.3021    0.0000 C.2     1  UNL1       -0.0681
     23 C           2.0000    0.2356    0.0000 C.3     1  UNL1       -0.0580
     24 C           6.6309    2.2947    0.0000 C.2     1  UNL1       -0.0990
     25 H           4.6479    2.1060    0.0000 H       1  UNL1        0.0472
     26 H           4.3244   -1.0140    0.0000 H       1  UNL1        0.0328
     27 H           5.5910   -1.2584    0.0000 H       1  UNL1        0.0337
     28 H           5.5923    2.7614    0.0000 H       1  UNL1        0.0347
     29 H           2.7000    0.7801    0.0000 H       1  UNL1        0.0466
     30 H           4.5396    1.5323    0.0000 H       1  UNL1        0.0286
     31 H           4.2542    0.3851    0.0000 H       1  UNL1        0.0286
     32 H           4.9600   -1.3816    0.0000 H       1  UNL1        0.0296
     33 H           5.4028   -0.6991    0.0000 H       1  UNL1        0.0296
     34 H           6.6943   -0.7918    0.0000 H       1  UNL1        0.0603
     35 H           2.7880    1.8503    0.0000 H       1  UNL1        0.0432
     36 H           2.3894    1.1600    0.0000 H       1  UNL1        0.0432
     37 H           7.2180    1.6122    0.0000 H       1  UNL1        0.0603
     38 H           7.8999    0.7515    0.0000 H       1  UNL1        0.0396
     39 H           5.8944    1.8998    0.0000 H       1  UNL1        0.0316
     40 H           5.1972    1.6200    0.0000 H       1  UNL1        0.0316
     41 H           2.3910   -0.5743    0.0000 H       1  UNL1        0.0296
     42 H           2.7650   -1.2679    0.0000 H       1  UNL1        0.0296
     43 H           3.2598   -1.5169    0.0000 H       1  UNL1        0.0593
     44 H           2.0002    0.8556    0.0000 H       1  UNL1        0.0236
     45 H           1.3800    0.2359    0.0000 H       1  UNL1        0.0236
     46 H           1.9998   -0.3844    0.0000 H       1  UNL1        0.0236
     47 H           7.6252   -1.1571    0.0000 H       1  UNL1        0.2098
     48 H           7.8385    2.3711    0.0000 H       1  UNL1        0.2098
     49 H           7.2015    2.5373    0.0000 H       1  UNL1        0.0535
     50 H           6.1356    2.6676    0.0000 H       1  UNL1        0.0535
     51 H           3.2638   -2.5314    0.0000 H       1  UNL1        0.2098
@<TRIPOS>BOND
     1    15     1    1
     2     1    47    1
     3     2    17    1
     4     2    48    1
     5    21     3    1
     6     3    51    1
     7     4     7    1
     8     4    11    1
     9     4    16    1
    10     5     7    1
    11     5     8    1
    12     5     9    1
    13     5    14    1
    14     6     9    1
    15     6    10    1
    16     6    13    1
    17     6    19    1
    18     7    10    1
    19     7    25    1
    20     8    11    1
    21     8    12    1
    22     8    26    1
    23     9    15    1
    24     9    27    1
    25    10    17    1
    26    10    28    1
    27    11    13    1
    28    11    29    1
    29    12    16    1
    30    12    20    1
    31    12    23    1
    32    13    30    1
    33    13    31    1
    34    14    21    1
    35    14    32    1
    36    14    33    1
    37    15    18    1
    38    15    34    1
    39    16    35    1
    40    16    36    1
    41    17    18    1
    42    17    37    1
    43    18    22    1
    44    18    38    1
    45    19    22    1
    46    19    39    1
    47    19    40    1
    48    20    21    1
    49    20    41    1
    50    20    42    1
    51    21    43    1
    52    22    24    2
    53    23    44    1
    54    23    45    1
    55    23    46    1
    56    24    49    1
    57    24    50    1
