@<TRIPOS>MOLECULE
IMPHY017967
 10 10 0 0 0
SMALL
GASTEIGER

@<TRIPOS>ATOM
      1 O           3.7321   -1.9330    0.0000 O.2     1  UNL1       -0.2961
      2 C           3.7321    1.0670    0.0000 C.3     1  UNL1        0.0008
      3 C           2.8660    0.5670    0.0000 C.3     1  UNL1        0.0073
      4 C           4.5981    0.5670    0.0000 C.3     1  UNL1        0.0078
      5 C           2.8660   -0.4330    0.0000 C.3     1  UNL1        0.0576
      6 C           4.5981   -0.4330    0.0000 C.3     1  UNL1        0.0645
      7 C           3.7321   -0.9330    0.0000 C.2     1  UNL1        0.1502
      8 C           3.2321    1.9330    0.0000 C.3     1  UNL1        0.0000
      9 C           4.2321    1.9330    0.0000 C.3     1  UNL1        0.0000
     10 C           2.0000   -0.9330    0.0000 C.3     1  UNL1        0.0078
@<TRIPOS>BOND
     1     1     7    2
     2     2     3    1
     3     2     4    1
     4     2     8    1
     5     2     9    1
     6     3     5    1
     7     4     6    1
     8     5     7    1
     9     5    10    1
    10     6     7    1
