@<TRIPOS>MOLECULE
IMPHY010140
 39 39 0 0 0
SMALL
GASTEIGER

@<TRIPOS>ATOM
      1 O           2.8660   -1.7500    0.0000 O.2     1  UNL1       -0.2920
      2 O           2.0000    1.7500    0.0000 O.3     1  UNL1       -0.3907
      3 C           7.1962   -0.2500    0.0000 C.3     1  UNL1       -0.0286
      4 C           3.7320   -0.2500    0.0000 C.2     1  UNL1        0.0002
      5 C           4.5981    0.2500    0.0000 C.3     1  UNL1       -0.0059
      6 C           7.1962   -1.2500    0.0000 C.3     1  UNL1       -0.0308
      7 C           6.3301    0.2500    0.0000 C.2     1  UNL1       -0.0759
      8 C           4.5981   -1.7500    0.0000 C.3     1  UNL1        0.0310
      9 C           5.4641   -1.2500    0.0000 C.2     1  UNL1       -0.0691
     10 C           5.4641   -0.2500    0.0000 C.2     1  UNL1       -0.0806
     11 C           3.7320   -1.2500    0.0000 C.2     1  UNL1        0.1635
     12 C           6.3301   -1.7500    0.0000 C.2     1  UNL1       -0.0843
     13 C           2.8660    0.2500    0.0000 C.2     1  UNL1       -0.0408
     14 C           6.3301    1.2500    0.0000 C.3     1  UNL1       -0.0438
     15 C           5.1950    0.2765    0.0000 C.3     1  UNL1       -0.0434
     16 C           2.8660    1.2500    0.0000 C.3     1  UNL1        0.0657
     17 C           2.0000   -0.2500    0.0000 C.3     1  UNL1       -0.0410
     18 H           7.8067   -0.3577    0.0000 H       1  UNL1        0.0313
     19 H           7.4082    0.3326    0.0000 H       1  UNL1        0.0313
     20 H           4.9966    0.7249    0.0000 H       1  UNL1        0.0357
     21 H           4.1996    0.7249    0.0000 H       1  UNL1        0.0357
     22 H           7.4082   -1.8326    0.0000 H       1  UNL1        0.0310
     23 H           7.8067   -1.1423    0.0000 H       1  UNL1        0.0310
     24 H           4.1996   -2.2250    0.0000 H       1  UNL1        0.0390
     25 H           4.9966   -2.2250    0.0000 H       1  UNL1        0.0390
     26 H           5.8627   -0.7249    0.0000 H       1  UNL1        0.0575
     27 H           6.3301   -2.3700    0.0000 H       1  UNL1        0.0572
     28 H           6.9501    1.2500    0.0000 H       1  UNL1        0.0274
     29 H           6.3301    1.8700    0.0000 H       1  UNL1        0.0274
     30 H           5.7101    1.2500    0.0000 H       1  UNL1        0.0274
     31 H           5.8055    0.3841    0.0000 H       1  UNL1        0.0274
     32 H           5.0873    0.8870    0.0000 H       1  UNL1        0.0274
     33 H           4.5844    0.1688    0.0000 H       1  UNL1        0.0274
     34 H           3.4766    1.1423    0.0000 H       1  UNL1        0.0604
     35 H           3.0781    1.8326    0.0000 H       1  UNL1        0.0604
     36 H           1.6900    0.2869    0.0000 H       1  UNL1        0.0275
     37 H           1.4631   -0.5600    0.0000 H       1  UNL1        0.0275
     38 H           2.3100   -0.7869    0.0000 H       1  UNL1        0.0275
     39 H           2.0000    2.3700    0.0000 H       1  UNL1        0.2098
@<TRIPOS>BOND
     1     1    11    2
     2     2    16    1
     3     2    39    1
     4     3     6    1
     5     3     7    1
     6     3    18    1
     7     3    19    1
     8     4     5    1
     9     4    11    1
    10     4    13    2
    11     5    10    1
    12     5    20    1
    13     5    21    1
    14     6    12    1
    15     6    22    1
    16     6    23    1
    17     7    10    2
    18     7    14    1
    19     8     9    1
    20     8    11    1
    21     8    24    1
    22     8    25    1
    23     9    12    2
    24     9    15    1
    25    10    26    1
    26    12    27    1
    27    13    16    1
    28    13    17    1
    29    14    28    1
    30    14    29    1
    31    14    30    1
    32    15    31    1
    33    15    32    1
    34    15    33    1
    35    16    34    1
    36    16    35    1
    37    17    36    1
    38    17    37    1
    39    17    38    1
