@<TRIPOS>MOLECULE
IMPHY003668
 27 26 0 0 0
SMALL
GASTEIGER

@<TRIPOS>ATOM
      1 O           4.5981   -0.7500    0.0000 O.2     1  UNL1       -0.2927
      2 C           2.8660    0.2500    0.0000 C.3     1  UNL1       -0.0397
      3 C           3.7320    0.7500    0.0000 C.3     1  UNL1        0.0122
      4 C           2.0000    0.7500    0.0000 C.3     1  UNL1       -0.0623
      5 C           2.8660   -0.7500    0.0000 C.3     1  UNL1       -0.0623
      6 C           4.5981    0.2500    0.0000 C.2     1  UNL1        0.1566
      7 C           5.4641    0.7500    0.0000 C.2     1  UNL1       -0.0163
      8 C           6.3301    0.2500    0.0000 C.2     1  UNL1       -0.0477
      9 C           6.3301   -0.7500    0.0000 C.3     1  UNL1       -0.0396
     10 C           7.1962    0.7500    0.0000 C.2     1  UNL1       -0.0658
     11 C           8.0622    0.2500    0.0000 C.2     1  UNL1       -0.0984
     12 H           2.8660    0.8700    0.0000 H       1  UNL1        0.0300
     13 H           4.1306    1.2250    0.0000 H       1  UNL1        0.0347
     14 H           3.3335    1.2250    0.0000 H       1  UNL1        0.0347
     15 H           2.3100    1.2869    0.0000 H       1  UNL1        0.0232
     16 H           1.4631    1.0600    0.0000 H       1  UNL1        0.0232
     17 H           1.6900    0.2131    0.0000 H       1  UNL1        0.0232
     18 H           2.2460   -0.7500    0.0000 H       1  UNL1        0.0232
     19 H           2.8660   -1.3700    0.0000 H       1  UNL1        0.0232
     20 H           3.4860   -0.7500    0.0000 H       1  UNL1        0.0232
     21 H           5.4641    1.3700    0.0000 H       1  UNL1        0.0655
     22 H           5.7101   -0.7500    0.0000 H       1  UNL1        0.0278
     23 H           6.3301   -1.3700    0.0000 H       1  UNL1        0.0278
     24 H           6.9501   -0.7500    0.0000 H       1  UNL1        0.0278
     25 H           7.1962    1.3700    0.0000 H       1  UNL1        0.0614
     26 H           8.0622   -0.3700    0.0000 H       1  UNL1        0.0535
     27 H           8.5991    0.5600    0.0000 H       1  UNL1        0.0535
@<TRIPOS>BOND
     1     1     6    2
     2     2     3    1
     3     2     4    1
     4     2     5    1
     5     2    12    1
     6     3     6    1
     7     3    13    1
     8     3    14    1
     9     4    15    1
    10     4    16    1
    11     4    17    1
    12     5    18    1
    13     5    19    1
    14     5    20    1
    15     6     7    1
    16     7     8    2
    17     7    21    1
    18     8     9    1
    19     8    10    1
    20     9    22    1
    21     9    23    1
    22     9    24    1
    23    10    11    2
    24    10    25    1
    25    11    26    1
    26    11    27    1
