@<TRIPOS>MOLECULE
IMPHY007016
 94 100 0 0 0
SMALL
GASTEIGER

@<TRIPOS>ATOM
      1 O           8.8270   -3.6109    0.0000 O.3     1  UNL1       -0.4641
      2 O           5.0754    0.4028    0.0000 O.3     1  UNL1       -0.4796
      3 O          14.3200   -3.7132    0.0000 O.3     1  UNL1       -0.4796
      4 O          10.5483   -4.0721    0.0000 O.2     1  UNL1       -0.2505
      5 O           5.3998   -1.7438    0.0000 O.3     1  UNL1       -0.4914
      6 O          12.5078   -4.9084    0.0000 O.3     1  UNL1       -0.4914
      7 O           7.7700    2.3483    0.0000 O.3     1  UNL1       -0.3943
      8 O          13.9628   -0.4089    0.0000 O.3     1  UNL1       -0.3943
      9 O           4.5628    4.7634    0.0000 O.3     1  UNL1       -0.4914
     10 O          17.9036   -4.6405    0.0000 O.3     1  UNL1       -0.4914
     11 O           2.6064    4.3475    0.0000 O.3     1  UNL1       -0.5033
     12 O          18.9036   -2.9084    0.0000 O.3     1  UNL1       -0.5033
     13 C           8.9961   -2.0017    0.0000 C.3     1  UNL1        0.0105
     14 C           9.9097   -2.4084    0.0000 C.3     1  UNL1        0.0666
     15 C           8.7882   -1.0235    0.0000 C.3     1  UNL1       -0.0209
     16 C          10.7757   -1.9084    0.0000 C.3     1  UNL1       -0.0142
     17 C           8.3270   -2.7448    0.0000 C.3     1  UNL1        0.0963
     18 C           9.8052   -3.4030    0.0000 C.2     1  UNL1        0.3109
     19 C           7.8372   -0.7145    0.0000 C.ar    1  UNL1       -0.0430
     20 C           6.2715    1.4797    0.0000 C.3     1  UNL1        0.0520
     21 C          14.3200   -2.1037    0.0000 C.3     1  UNL1        0.0520
     22 C          11.6417   -2.4084    0.0000 C.ar    1  UNL1       -0.0426
     23 C           6.6782    0.5726    0.0000 C.ar    1  UNL1        0.0073
     24 C          13.3738   -2.4084    0.0000 C.ar    1  UNL1        0.0073
     25 C           5.2830    1.3750    0.0000 C.3     1  UNL1        0.1344
     26 C          14.9036   -2.9084    0.0000 C.3     1  UNL1        0.1344
     27 C           7.6293    0.2636    0.0000 C.ar    1  UNL1       -0.0512
     28 C          12.5078   -1.9084    0.0000 C.ar    1  UNL1       -0.0512
     29 C           5.9351   -0.0965    0.0000 C.ar    1  UNL1        0.1664
     30 C          13.3738   -3.4084    0.0000 C.ar    1  UNL1        0.1664
     31 C           7.0940   -1.3837    0.0000 C.ar    1  UNL1       -0.0131
     32 C          11.6417   -3.4084    0.0000 C.ar    1  UNL1       -0.0131
     33 C           6.1430   -1.0746    0.0000 C.ar    1  UNL1        0.1621
     34 C           6.7700    2.3466    0.0000 C.3     1  UNL1        0.0548
     35 C          12.5078   -3.9084    0.0000 C.ar    1  UNL1        0.1621
     36 C          14.6307   -1.1532    0.0000 C.3     1  UNL1        0.0548
     37 C           4.6138    2.1181    0.0000 C.ar    1  UNL1       -0.0030
     38 C          15.9036   -2.9084    0.0000 C.ar    1  UNL1       -0.0030
     39 C           4.9229    3.0692    0.0000 C.ar    1  UNL1       -0.0096
     40 C           3.6357    1.9102    0.0000 C.ar    1  UNL1       -0.0514
     41 C          16.4036   -3.7744    0.0000 C.ar    1  UNL1       -0.0096
     42 C          16.4036   -2.0424    0.0000 C.ar    1  UNL1       -0.0514
     43 C           4.2537    3.8123    0.0000 C.ar    1  UNL1        0.1616
     44 C          17.4036   -3.7744    0.0000 C.ar    1  UNL1        0.1616
     45 C           2.9666    2.6533    0.0000 C.ar    1  UNL1       -0.0161
     46 C          17.4036   -2.0424    0.0000 C.ar    1  UNL1       -0.0161
     47 C           3.2756    3.6044    0.0000 C.ar    1  UNL1        0.1585
     48 C          17.9036   -2.9084    0.0000 C.ar    1  UNL1        0.1585
     49 C           5.6077   -2.7219    0.0000 C.3     1  UNL1        0.0790
     50 C          11.6417   -5.4084    0.0000 C.3     1  UNL1        0.0790
     51 C           3.8936    5.5065    0.0000 C.3     1  UNL1        0.0790
     52 C          17.4036   -5.5065    0.0000 C.3     1  UNL1        0.0790
     53 H           8.3973   -1.8412    0.0000 H       1  UNL1        0.0345
     54 H           9.8772   -1.7893    0.0000 H       1  UNL1        0.0420
     55 H           9.4078   -1.0019    0.0000 H       1  UNL1        0.0317
     56 H           8.8745   -0.4096    0.0000 H       1  UNL1        0.0317
     57 H          11.1742   -1.4335    0.0000 H       1  UNL1        0.0321
     58 H          10.3772   -1.4335    0.0000 H       1  UNL1        0.0321
     59 H           7.9122   -2.2841    0.0000 H       1  UNL1        0.0700
     60 H           7.8254   -3.1093    0.0000 H       1  UNL1        0.0700
     61 H           5.9332    1.9993    0.0000 H       1  UNL1        0.0412
     62 H          13.8825   -1.6643    0.0000 H       1  UNL1        0.0412
     63 H           4.6840    1.2148    0.0000 H       1  UNL1        0.0791
     64 H          15.1853   -3.4607    0.0000 H       1  UNL1        0.0791
     65 H           8.0900    0.6785    0.0000 H       1  UNL1        0.0624
     66 H          12.5078   -1.2884    0.0000 H       1  UNL1        0.0624
     67 H           7.2229   -1.9901    0.0000 H       1  UNL1        0.0658
     68 H          11.1048   -3.7184    0.0000 H       1  UNL1        0.0658
     69 H           6.8766    2.9574    0.0000 H       1  UNL1        0.0564
     70 H           6.1870    2.5577    0.0000 H       1  UNL1        0.0564
     71 H          15.1776   -1.4452    0.0000 H       1  UNL1        0.0564
     72 H          15.0132   -0.6653    0.0000 H       1  UNL1        0.0564
     73 H           5.5293    3.1981    0.0000 H       1  UNL1        0.0659
     74 H           3.4441    1.3205    0.0000 H       1  UNL1        0.0623
     75 H          16.0936   -4.3114    0.0000 H       1  UNL1        0.0659
     76 H          16.0936   -1.5055    0.0000 H       1  UNL1        0.0623
     77 H           8.0791    2.8858    0.0000 H       1  UNL1        0.2094
     78 H          14.1554    0.1804    0.0000 H       1  UNL1        0.2094
     79 H           2.3601    2.5244    0.0000 H       1  UNL1        0.0655
     80 H          17.7136   -1.5055    0.0000 H       1  UNL1        0.0655
     81 H           5.0013   -2.8508    0.0000 H       1  UNL1        0.0660
     82 H           5.7366   -3.3284    0.0000 H       1  UNL1        0.0660
     83 H           6.2142   -2.5930    0.0000 H       1  UNL1        0.0660
     84 H          11.3317   -4.8715    0.0000 H       1  UNL1        0.0660
     85 H          11.1048   -5.7184    0.0000 H       1  UNL1        0.0660
     86 H          11.9517   -5.9454    0.0000 H       1  UNL1        0.0660
     87 H           2.0000    4.2186    0.0000 H       1  UNL1        0.2923
     88 H          19.2136   -2.3715    0.0000 H       1  UNL1        0.2923
     89 H           4.3544    5.9214    0.0000 H       1  UNL1        0.0660
     90 H           3.4788    5.9672    0.0000 H       1  UNL1        0.0660
     91 H           3.4329    5.0916    0.0000 H       1  UNL1        0.0660
     92 H          16.8667   -5.1965    0.0000 H       1  UNL1        0.0660
     93 H          17.0936   -6.0434    0.0000 H       1  UNL1        0.0660
     94 H          17.9405   -5.8165    0.0000 H       1  UNL1        0.0660
@<TRIPOS>BOND
     1     1    17    1
     2     1    18    1
     3     2    25    1
     4     2    29    1
     5     3    26    1
     6     3    30    1
     7     4    18    2
     8     5    33    1
     9     5    49    1
    10     6    35    1
    11     6    50    1
    12     7    34    1
    13     7    77    1
    14     8    36    1
    15     8    78    1
    16     9    43    1
    17     9    51    1
    18    10    44    1
    19    10    52    1
    20    11    47    1
    21    11    87    1
    22    12    48    1
    23    12    88    1
    24    13    14    1
    25    13    15    1
    26    13    17    1
    27    13    53    1
    28    14    16    1
    29    14    18    1
    30    14    54    1
    31    15    19    1
    32    15    55    1
    33    15    56    1
    34    16    22    1
    35    16    57    1
    36    16    58    1
    37    17    59    1
    38    17    60    1
    39    19    27   ar
    40    19    31   ar
    41    20    23    1
    42    20    25    1
    43    20    34    1
    44    20    61    1
    45    21    24    1
    46    21    26    1
    47    21    36    1
    48    21    62    1
    49    22    28   ar
    50    22    32   ar
    51    23    27   ar
    52    23    29   ar
    53    24    28   ar
    54    24    30   ar
    55    25    37    1
    56    25    63    1
    57    26    38    1
    58    26    64    1
    59    27    65    1
    60    28    66    1
    61    29    33   ar
    62    30    35   ar
    63    31    33   ar
    64    31    67    1
    65    32    35   ar
    66    32    68    1
    67    34    69    1
    68    34    70    1
    69    36    71    1
    70    36    72    1
    71    37    39   ar
    72    37    40   ar
    73    38    41   ar
    74    38    42   ar
    75    39    43   ar
    76    39    73    1
    77    40    45   ar
    78    40    74    1
    79    41    44   ar
    80    41    75    1
    81    42    46   ar
    82    42    76    1
    83    43    47   ar
    84    44    48   ar
    85    45    47   ar
    86    45    79    1
    87    46    48   ar
    88    46    80    1
    89    49    81    1
    90    49    82    1
    91    49    83    1
    92    50    84    1
    93    50    85    1
    94    50    86    1
    95    51    89    1
    96    51    90    1
    97    51    91    1
    98    52    92    1
    99    52    93    1
   100    52    94    1
