@<TRIPOS>MOLECULE
IMPHY004686
 53 55 0 0 0
SMALL
GASTEIGER

@<TRIPOS>ATOM
      1 O           7.2241   -1.0519    0.0000 O.2     1  UNL1       -0.4216
      2 O           5.4641    1.9828    0.0000 O.3     1  UNL1       -0.5052
      3 O           3.7320   -1.0172    0.0000 O.3     1  UNL1       -0.5055
      4 O           3.7320    1.9828    0.0000 O.2     1  UNL1       -0.2915
      5 O           8.9942   -1.0414    0.0000 O.2     1  UNL1       -0.2452
      6 C           6.3301    0.4828    0.0000 C.ar    1  UNL1        0.0679
      7 C           5.4641   -1.0172    0.0000 C.ar    1  UNL1        0.0416
      8 C           4.5981    0.4828    0.0000 C.ar    1  UNL1        0.1014
      9 C           6.3301   -0.5172    0.0000 C.ar    1  UNL1        0.1501
     10 C           5.4641    0.9828    0.0000 C.ar    1  UNL1        0.1421
     11 C           4.5981   -0.5172    0.0000 C.ar    1  UNL1        0.1378
     12 C           7.2241    1.0174    0.0000 C.ar    1  UNL1        0.0031
     13 C           2.8660    0.4828    0.0000 C.3     1  UNL1        0.0167
     14 C           5.4641   -2.0172    0.0000 C.3     1  UNL1       -0.0022
     15 C           3.7320    0.9828    0.0000 C.2     1  UNL1        0.1727
     16 C           7.2125    2.0174    0.0000 C.ar    1  UNL1       -0.0169
     17 C           8.1301    0.5036    0.0000 C.ar    1  UNL1        0.0314
     18 C           2.0000    0.9828    0.0000 C.3     1  UNL1       -0.0556
     19 C           2.8660   -0.5172    0.0000 C.3     1  UNL1       -0.0556
     20 C           4.5981   -2.5172    0.0000 C.2     1  UNL1       -0.0807
     21 C           8.1301   -0.5380    0.0000 C.ar    1  UNL1        0.3378
     22 C           4.5981   -3.5172    0.0000 C.2     1  UNL1       -0.0793
     23 C           8.0727    2.5273    0.0000 C.ar    1  UNL1       -0.0540
     24 C           6.3408    2.5073    0.0000 C.ar    1  UNL1       -0.0540
     25 C           8.0611    3.5273    0.0000 C.ar    1  UNL1       -0.0612
     26 C           6.3292    3.5072    0.0000 C.ar    1  UNL1       -0.0612
     27 C           3.7320   -4.0172    0.0000 C.3     1  UNL1       -0.0440
     28 C           5.4641   -4.0172    0.0000 C.3     1  UNL1       -0.0440
     29 C           7.1894    4.0172    0.0000 C.ar    1  UNL1       -0.0617
     30 H           2.8660    1.1028    0.0000 H       1  UNL1        0.0375
     31 H           5.6762   -2.5998    0.0000 H       1  UNL1        0.0358
     32 H           6.0747   -1.9096    0.0000 H       1  UNL1        0.0358
     33 H           8.6659    0.8157    0.0000 H       1  UNL1        0.0695
     34 H           2.3100    1.5197    0.0000 H       1  UNL1        0.0236
     35 H           1.4631    1.2928    0.0000 H       1  UNL1        0.0236
     36 H           1.6900    0.4458    0.0000 H       1  UNL1        0.0236
     37 H           2.2460   -0.5172    0.0000 H       1  UNL1        0.0236
     38 H           2.8660   -1.1372    0.0000 H       1  UNL1        0.0236
     39 H           3.4860   -0.5172    0.0000 H       1  UNL1        0.0236
     40 H           4.0611   -2.2072    0.0000 H       1  UNL1        0.0575
     41 H           4.9272    2.2928    0.0000 H       1  UNL1        0.2922
     42 H           3.7320   -1.6372    0.0000 H       1  UNL1        0.2922
     43 H           8.6132    2.2236    0.0000 H       1  UNL1        0.0624
     44 H           5.8074    2.1911    0.0000 H       1  UNL1        0.0624
     45 H           8.5944    3.8435    0.0000 H       1  UNL1        0.0618
     46 H           5.7887    3.8110    0.0000 H       1  UNL1        0.0618
     47 H           3.4220   -3.4803    0.0000 H       1  UNL1        0.0274
     48 H           3.1951   -4.3272    0.0000 H       1  UNL1        0.0274
     49 H           4.0420   -4.5542    0.0000 H       1  UNL1        0.0274
     50 H           5.1541   -4.5542    0.0000 H       1  UNL1        0.0274
     51 H           6.0010   -4.3272    0.0000 H       1  UNL1        0.0274
     52 H           5.7741   -3.4803    0.0000 H       1  UNL1        0.0274
     53 H           7.1822    4.6372    0.0000 H       1  UNL1        0.0618
@<TRIPOS>BOND
     1     1     9   ar
     2     1    21   ar
     3     2    10    1
     4     2    41    1
     5     3    11    1
     6     3    42    1
     7     4    15    2
     8     5    21    2
     9     6     9   ar
    10     6    10   ar
    11     6    12   ar
    12     7     9   ar
    13     7    11   ar
    14     7    14    1
    15     8    10   ar
    16     8    11   ar
    17     8    15    1
    18    12    16    1
    19    12    17   ar
    20    13    15    1
    21    13    18    1
    22    13    19    1
    23    13    30    1
    24    14    20    1
    25    14    31    1
    26    14    32    1
    27    16    23   ar
    28    16    24   ar
    29    17    21   ar
    30    17    33    1
    31    18    34    1
    32    18    35    1
    33    18    36    1
    34    19    37    1
    35    19    38    1
    36    19    39    1
    37    20    22    2
    38    20    40    1
    39    22    27    1
    40    22    28    1
    41    23    25   ar
    42    23    43    1
    43    24    26   ar
    44    24    44    1
    45    25    29   ar
    46    25    45    1
    47    26    29   ar
    48    26    46    1
    49    27    47    1
    50    27    48    1
    51    27    49    1
    52    28    50    1
    53    28    51    1
    54    28    52    1
    55    29    53    1
