@<TRIPOS>MOLECULE
IMPHY000341
 126 137 0 0 0
SMALL
GASTEIGER

@<TRIPOS>ATOM
      1 O          10.3681   -2.4088    0.0000 O.3     1  UNL1       -0.4834
      2 O           9.6188    1.5228    0.0000 O.3     1  UNL1       -0.4834
      3 O           6.6798   -4.6723    0.0000 O.3     1  UNL1       -0.4837
      4 O          12.6905    4.0886    0.0000 O.3     1  UNL1       -0.4834
      5 O          12.3416   -0.6639    0.0000 O.3     1  UNL1       -0.5062
      6 O           7.9654    0.3919    0.0000 O.3     1  UNL1       -0.5062
      7 O          13.2525    2.1659    0.0000 O.3     1  UNL1       -0.5062
      8 O           6.8761   -2.3741    0.0000 O.3     1  UNL1       -0.5062
      9 O           9.1985    4.1233    0.0000 O.3     1  UNL1       -0.5062
     10 O           9.9697   -3.4714    0.0000 O.3     1  UNL1       -0.5062
     11 O          10.9305    7.1233    0.0000 O.3     1  UNL1       -0.5063
     12 O           9.3685   -6.9599    0.0000 O.3     1  UNL1       -0.5065
     13 O          14.7305   -3.9083    0.0000 O.3     1  UNL1       -0.5068
     14 O           5.2943    3.1284    0.0000 O.3     1  UNL1       -0.5068
     15 O           2.3985   -3.0380    0.0000 O.3     1  UNL1       -0.5068
     16 O          17.0529    2.5891    0.0000 O.3     1  UNL1       -0.5068
     17 C          10.3681   -0.3394    0.0000 C.3     1  UNL1        0.0268
     18 C          10.9305    3.1233    0.0000 C.3     1  UNL1        0.0268
     19 C          11.2742   -0.8533    0.0000 C.3     1  UNL1       -0.0002
     20 C          11.0020    0.4340    0.0000 C.ar    1  UNL1        0.0439
     21 C           9.4742   -0.8741    0.0000 C.ar    1  UNL1        0.0439
     22 C          11.2830    2.1431    0.0000 C.ar    1  UNL1        0.0439
     23 C           9.9040    3.3002    0.0000 C.3     1  UNL1       -0.0002
     24 C          10.6491    1.3697    0.0000 C.ar    1  UNL1        0.1358
     25 C          11.2742   -1.8949    0.0000 C.3     1  UNL1        0.1260
     26 C           9.4742   -1.8741    0.0000 C.ar    1  UNL1        0.1358
     27 C           7.9654   -3.1402    0.0000 C.3     1  UNL1        0.0268
     28 C           9.2438    2.4946    0.0000 C.3     1  UNL1        0.1260
     29 C           8.6081   -2.3741    0.0000 C.ar    1  UNL1        0.0439
     30 C          10.9305    4.1233    0.0000 C.ar    1  UNL1        0.0439
     31 C           6.9806   -2.9665    0.0000 C.3     1  UNL1       -0.0002
     32 C          11.9887    0.2717    0.0000 C.ar    1  UNL1        0.1276
     33 C           8.6081   -0.3741    0.0000 C.ar    1  UNL1        0.1276
     34 C          12.2698    1.9808    0.0000 C.ar    1  UNL1        0.1276
     35 C           8.3074   -4.0798    0.0000 C.ar    1  UNL1        0.0436
     36 C           6.3378   -3.7326    0.0000 C.3     1  UNL1        0.1260
     37 C          11.7966    4.6233    0.0000 C.ar    1  UNL1        0.1352
     38 C           7.7421   -1.8741    0.0000 C.ar    1  UNL1        0.1276
     39 C          12.1383   -2.3982    0.0000 C.ar    1  UNL1       -0.0071
     40 C          12.6226    1.0452    0.0000 C.ar    1  UNL1        0.0221
     41 C           8.2564    2.6530    0.0000 C.ar    1  UNL1       -0.0071
     42 C          11.7966    5.6233    0.0000 C.ar    1  UNL1        0.0363
     43 C           7.7421   -0.8741    0.0000 C.ar    1  UNL1        0.0221
     44 C          10.0645    4.6233    0.0000 C.ar    1  UNL1        0.1276
     45 C           7.6646   -4.8459    0.0000 C.ar    1  UNL1        0.1321
     46 C          12.6905    6.1579    0.0000 C.3     1  UNL1       -0.0171
     47 C          13.5966    4.6024    0.0000 C.3     1  UNL1        0.1255
     48 C          13.5966    5.6441    0.0000 C.3     1  UNL1       -0.0073
     49 C           5.3530   -3.5589    0.0000 C.ar    1  UNL1       -0.0071
     50 C           9.3358   -4.2449    0.0000 C.ar    1  UNL1        0.1275
     51 C          10.9305    6.1233    0.0000 C.ar    1  UNL1        0.1270
     52 C          10.0645    5.6233    0.0000 C.ar    1  UNL1        0.0221
     53 C          12.1344   -3.3982    0.0000 C.ar    1  UNL1       -0.0516
     54 C          13.0062   -1.9016    0.0000 C.ar    1  UNL1       -0.0516
     55 C           7.6256    1.8772    0.0000 C.ar    1  UNL1       -0.0516
     56 C           7.8999    3.5873    0.0000 C.ar    1  UNL1       -0.0516
     57 C           8.0057   -5.8301    0.0000 C.ar    1  UNL1        0.0221
     58 C          14.4607    4.0991    0.0000 C.ar    1  UNL1       -0.0071
     59 C           9.6996   -5.2209    0.0000 C.ar    1  UNL1        0.0218
     60 C           9.0301   -6.0188    0.0000 C.ar    1  UNL1        0.1238
     61 C           4.7102   -4.3250    0.0000 C.ar    1  UNL1       -0.0516
     62 C           5.0109   -2.6192    0.0000 C.ar    1  UNL1       -0.0516
     63 C          12.9985   -3.9016    0.0000 C.ar    1  UNL1       -0.0198
     64 C          13.8703   -2.4049    0.0000 C.ar    1  UNL1       -0.0198
     65 C           6.6382    2.0357    0.0000 C.ar    1  UNL1       -0.0198
     66 C           6.9126    3.7458    0.0000 C.ar    1  UNL1       -0.0198
     67 C          13.8664   -3.4049    0.0000 C.ar    1  UNL1        0.1169
     68 C           6.2817    2.9700    0.0000 C.ar    1  UNL1        0.1169
     69 C          14.4568    3.0991    0.0000 C.ar    1  UNL1       -0.0516
     70 C          15.3286    4.5958    0.0000 C.ar    1  UNL1       -0.0516
     71 C           3.7254   -4.1513    0.0000 C.ar    1  UNL1       -0.0198
     72 C           4.0261   -2.4455    0.0000 C.ar    1  UNL1       -0.0198
     73 C           3.3833   -3.2116    0.0000 C.ar    1  UNL1        0.1169
     74 C          15.3209    2.5958    0.0000 C.ar    1  UNL1       -0.0198
     75 C          16.1927    4.0924    0.0000 C.ar    1  UNL1       -0.0198
     76 C          16.1888    3.0924    0.0000 C.ar    1  UNL1        0.1169
     77 H          10.9776   -0.2259    0.0000 H       1  UNL1        0.0403
     78 H          10.5311    3.5974    0.0000 H       1  UNL1        0.0403
     79 H          11.8850   -0.9594    0.0000 H       1  UNL1        0.0313
     80 H          11.4832   -0.2696    0.0000 H       1  UNL1        0.0313
     81 H          10.1123    3.8842    0.0000 H       1  UNL1        0.0313
     82 H           9.3643    3.6054    0.0000 H       1  UNL1        0.0313
     83 H          11.2706   -2.5149    0.0000 H       1  UNL1        0.0784
     84 H           7.7534   -2.5576    0.0000 H       1  UNL1        0.0403
     85 H           8.8535    2.0128    0.0000 H       1  UNL1        0.0784
     86 H           7.1926   -2.3839    0.0000 H       1  UNL1        0.0313
     87 H           6.4436   -2.6565    0.0000 H       1  UNL1        0.0313
     88 H           5.9393   -4.2076    0.0000 H       1  UNL1        0.0784
     89 H          13.2344    0.9446    0.0000 H       1  UNL1        0.0691
     90 H           7.2052   -0.5641    0.0000 H       1  UNL1        0.0691
     91 H          13.0841    6.6369    0.0000 H       1  UNL1        0.0317
     92 H          12.2859    6.6277    0.0000 H       1  UNL1        0.0317
     93 H          13.5930    3.9825    0.0000 H       1  UNL1        0.0784
     94 H          14.2074    5.5380    0.0000 H       1  UNL1        0.0307
     95 H          13.8056    6.2278    0.0000 H       1  UNL1        0.0307
     96 H           9.5276    5.9333    0.0000 H       1  UNL1        0.0691
     97 H          11.5963   -3.7062    0.0000 H       1  UNL1        0.0623
     98 H          13.0086   -1.2816    0.0000 H       1  UNL1        0.0623
     99 H           7.8466    1.2980    0.0000 H       1  UNL1        0.0623
    100 H           8.2911    4.0684    0.0000 H       1  UNL1        0.0623
    101 H           7.6017   -6.3004    0.0000 H       1  UNL1        0.0691
    102 H          12.9534   -0.7645    0.0000 H       1  UNL1        0.2921
    103 H           7.3548    0.2843    0.0000 H       1  UNL1        0.2921
    104 H          13.6565    1.6956    0.0000 H       1  UNL1        0.2921
    105 H          10.3106   -5.3262    0.0000 H       1  UNL1        0.0691
    106 H           6.3392   -2.0641    0.0000 H       1  UNL1        0.2921
    107 H           4.9222   -4.9076    0.0000 H       1  UNL1        0.0623
    108 H           5.4095   -2.1442    0.0000 H       1  UNL1        0.0623
    109 H          12.9961   -4.5216    0.0000 H       1  UNL1        0.0654
    110 H          14.4084   -2.0970    0.0000 H       1  UNL1        0.0654
    111 H           8.6616    4.4333    0.0000 H       1  UNL1        0.2921
    112 H           6.2470    1.5546    0.0000 H       1  UNL1        0.0654
    113 H           6.6916    4.3250    0.0000 H       1  UNL1        0.0654
    114 H          10.5815   -3.5720    0.0000 H       1  UNL1        0.2921
    115 H          10.3936    7.4333    0.0000 H       1  UNL1        0.2921
    116 H          13.9187    2.7912    0.0000 H       1  UNL1        0.0623
    117 H          15.3310    5.2158    0.0000 H       1  UNL1        0.0623
    118 H           3.3268   -4.6263    0.0000 H       1  UNL1        0.0654
    119 H           3.8141   -1.8629    0.0000 H       1  UNL1        0.0654
    120 H          15.3185    1.9758    0.0000 H       1  UNL1        0.0654
    121 H          16.7308    4.4004    0.0000 H       1  UNL1        0.0654
    122 H           8.9681   -7.4333    0.0000 H       1  UNL1        0.2921
    123 H          14.7282   -4.5282    0.0000 H       1  UNL1        0.2921
    124 H           5.0733    3.7077    0.0000 H       1  UNL1        0.2921
    125 H           2.0000   -3.5129    0.0000 H       1  UNL1        0.2921
    126 H          17.5911    2.8970    0.0000 H       1  UNL1        0.2921
@<TRIPOS>BOND
     1     1    25    1
     2     1    26    1
     3     2    24    1
     4     2    28    1
     5     3    36    1
     6     3    45    1
     7     4    37    1
     8     4    47    1
     9     5    32    1
    10     5   102    1
    11     6    33    1
    12     6   103    1
    13     7    34    1
    14     7   104    1
    15     8    38    1
    16     8   106    1
    17     9    44    1
    18     9   111    1
    19    10    50    1
    20    10   114    1
    21    11    51    1
    22    11   115    1
    23    12    60    1
    24    12   122    1
    25    13    67    1
    26    13   123    1
    27    14    68    1
    28    14   124    1
    29    15    73    1
    30    15   125    1
    31    16    76    1
    32    16   126    1
    33    17    19    1
    34    17    20    1
    35    17    21    1
    36    17    77    1
    37    18    22    1
    38    18    23    1
    39    18    30    1
    40    18    78    1
    41    19    25    1
    42    19    79    1
    43    19    80    1
    44    20    24   ar
    45    20    32   ar
    46    21    26   ar
    47    21    33   ar
    48    22    24   ar
    49    22    34   ar
    50    23    28    1
    51    23    81    1
    52    23    82    1
    53    25    39    1
    54    25    83    1
    55    26    29   ar
    56    27    29    1
    57    27    31    1
    58    27    35    1
    59    27    84    1
    60    28    41    1
    61    28    85    1
    62    29    38   ar
    63    30    37   ar
    64    30    44   ar
    65    31    36    1
    66    31    86    1
    67    31    87    1
    68    32    40   ar
    69    33    43   ar
    70    34    40   ar
    71    35    45   ar
    72    35    50   ar
    73    36    49    1
    74    36    88    1
    75    37    42   ar
    76    38    43   ar
    77    39    53   ar
    78    39    54   ar
    79    40    89    1
    80    41    55   ar
    81    41    56   ar
    82    42    46    1
    83    42    51   ar
    84    43    90    1
    85    44    52   ar
    86    45    57   ar
    87    46    48    1
    88    46    91    1
    89    46    92    1
    90    47    48    1
    91    47    58    1
    92    47    93    1
    93    48    94    1
    94    48    95    1
    95    49    61   ar
    96    49    62   ar
    97    50    59   ar
    98    51    52   ar
    99    52    96    1
   100    53    63   ar
   101    53    97    1
   102    54    64   ar
   103    54    98    1
   104    55    65   ar
   105    55    99    1
   106    56    66   ar
   107    56   100    1
   108    57    60   ar
   109    57   101    1
   110    58    69   ar
   111    58    70   ar
   112    59    60   ar
   113    59   105    1
   114    61    71   ar
   115    61   107    1
   116    62    72   ar
   117    62   108    1
   118    63    67   ar
   119    63   109    1
   120    64    67   ar
   121    64   110    1
   122    65    68   ar
   123    65   112    1
   124    66    68   ar
   125    66   113    1
   126    69    74   ar
   127    69   116    1
   128    70    75   ar
   129    70   117    1
   130    71    73   ar
   131    71   118    1
   132    72    73   ar
   133    72   119    1
   134    74    76   ar
   135    74   120    1
   136    75    76   ar
   137    75   121    1
