@<TRIPOS>MOLECULE
IMPHY006893
 51 55 0 0 0
SMALL
GASTEIGER

@<TRIPOS>ATOM
      1 O           6.6710    0.0251    0.0000 O.3     1  UNL1       -0.3372
      2 O           8.4031    0.0251    0.0000 O.3     1  UNL1       -0.3503
      3 O           9.4302   -1.6568    0.0000 O.3     1  UNL1       -0.4521
      4 O           9.4431   -3.3332    0.0000 O.3     1  UNL1       -0.4526
      5 O           4.9487    2.8112    0.0000 O.3     1  UNL1       -0.4914
      6 O           2.9731    2.3519    0.0000 O.3     1  UNL1       -0.4914
      7 N           5.0341   -2.0813    0.0000 N.3     1  UNL1       -0.3067
      8 C           5.8050   -1.4749    0.0000 C.3     1  UNL1        0.0643
      9 C           5.8050   -0.4749    0.0000 C.3     1  UNL1        0.1067
     10 C           6.6710   -1.9749    0.0000 C.ar    1  UNL1       -0.0160
     11 C           5.0341    0.1314    0.0000 C.ar    1  UNL1       -0.0101
     12 C           7.5370   -1.4749    0.0000 C.ar    1  UNL1        0.0580
     13 C           7.5370   -0.4749    0.0000 C.3     1  UNL1        0.1895
     14 C           4.0788   -1.8592    0.0000 C.3     1  UNL1        0.0005
     15 C           4.0788   -0.0907    0.0000 C.ar    1  UNL1       -0.0368
     16 C           3.6544   -0.9749    0.0000 C.3     1  UNL1       -0.0146
     17 C           8.4470   -1.9818    0.0000 C.ar    1  UNL1        0.1745
     18 C           6.6550   -3.0164    0.0000 C.ar    1  UNL1       -0.0529
     19 C           5.3463    1.1042    0.0000 C.ar    1  UNL1       -0.0103
     20 C           8.4551   -3.0234    0.0000 C.ar    1  UNL1        0.1667
     21 C           3.3694    0.6446    0.0000 C.ar    1  UNL1       -0.0127
     22 C           7.5530   -3.5442    0.0000 C.ar    1  UNL1       -0.0158
     23 C           4.6542    1.8556    0.0000 C.ar    1  UNL1        0.1618
     24 C           3.6591    1.6243    0.0000 C.ar    1  UNL1        0.1618
     25 C          10.0445   -2.4903    0.0000 C.3     1  UNL1        0.2332
     26 C           8.4031    1.0251    0.0000 C.3     1  UNL1        0.0398
     27 C           4.2684    3.5442    0.0000 C.3     1  UNL1        0.0790
     28 C           2.0000    2.1217    0.0000 C.3     1  UNL1        0.0790
     29 H           5.8656   -2.3228    0.0000 H       1  UNL1        0.0539
     30 H           6.5411   -0.8999    0.0000 H       1  UNL1        0.0667
     31 H           5.1688   -2.6864    0.0000 H       1  UNL1        0.1226
     32 H           7.5370    0.1451    0.0000 H       1  UNL1        0.0966
     33 H           3.4740   -1.9958    0.0000 H       1  UNL1        0.0427
     34 H           4.0768   -2.4792    0.0000 H       1  UNL1        0.0427
     35 H           3.1695   -0.5886    0.0000 H       1  UNL1        0.0326
     36 H           3.1695   -1.3613    0.0000 H       1  UNL1        0.0326
     37 H           6.1145   -3.3202    0.0000 H       1  UNL1        0.0622
     38 H           5.9518    1.2376    0.0000 H       1  UNL1        0.0659
     39 H           2.7672    0.4972    0.0000 H       1  UNL1        0.0658
     40 H           7.5506   -4.1642    0.0000 H       1  UNL1        0.0655
     41 H          10.5086   -2.9014    0.0000 H       1  UNL1        0.1166
     42 H          10.5022   -2.0720    0.0000 H       1  UNL1        0.1166
     43 H           9.0231    1.0251    0.0000 H       1  UNL1        0.0525
     44 H           8.4031    1.6451    0.0000 H       1  UNL1        0.0525
     45 H           7.7831    1.0251    0.0000 H       1  UNL1        0.0525
     46 H           4.7228    3.9660    0.0000 H       1  UNL1        0.0660
     47 H           3.8466    3.9986    0.0000 H       1  UNL1        0.0660
     48 H           3.8140    3.1224    0.0000 H       1  UNL1        0.0660
     49 H           1.8573    2.7251    0.0000 H       1  UNL1        0.0660
     50 H           1.3966    1.9790    0.0000 H       1  UNL1        0.0660
     51 H           2.1427    1.5184    0.0000 H       1  UNL1        0.0660
@<TRIPOS>BOND
     1     1     9    1
     2     1    13    1
     3    13     2    1
     4     2    26    1
     5     3    17    1
     6     3    25    1
     7     4    20    1
     8     4    25    1
     9     5    23    1
    10     5    27    1
    11     6    24    1
    12     6    28    1
    13     7     8    1
    14     7    14    1
    15     7    31    1
    16     8     9    1
    17     8    10    1
    18     8    29    1
    19     9    11    1
    20     9    30    1
    21    10    12   ar
    22    10    18   ar
    23    11    15   ar
    24    11    19   ar
    25    12    13    1
    26    12    17   ar
    27    13    32    1
    28    14    16    1
    29    14    33    1
    30    14    34    1
    31    15    16    1
    32    15    21   ar
    33    16    35    1
    34    16    36    1
    35    17    20   ar
    36    18    22   ar
    37    18    37    1
    38    19    23   ar
    39    19    38    1
    40    20    22   ar
    41    21    24   ar
    42    21    39    1
    43    22    40    1
    44    23    24   ar
    45    25    41    1
    46    25    42    1
    47    26    43    1
    48    26    44    1
    49    26    45    1
    50    27    46    1
    51    27    47    1
    52    27    48    1
    53    28    49    1
    54    28    50    1
    55    28    51    1
