@<TRIPOS>MOLECULE
IMPHY014731
 55 58 0 0 0
SMALL
GASTEIGER

@<TRIPOS>ATOM
      1 O           7.5425   -1.2183    0.0000 O.3     1  UNL1       -0.4580
      2 O           1.8437    0.8673    0.0000 O.2     1  UNL1       -0.2756
      3 O           9.2708   -1.1042    0.0000 O.2     1  UNL1       -0.2453
      4 N           7.3164    1.8426    0.0000 N.3     1  UNL1       -0.2985
      5 N           3.2175    1.9838    0.0000 N.am    1  UNL1       -0.2978
      6 C           5.2663    2.1491    0.0000 C.3     1  UNL1       -0.0091
      7 C           5.0075    3.1150    0.0000 C.3     1  UNL1       -0.0092
      8 C           6.4873    1.2834    0.0000 C.3     1  UNL1        0.0180
      9 C           5.7441    4.0976    0.0000 C.3     1  UNL1       -0.0417
     10 C           3.5758    2.9174    0.0000 C.3     1  UNL1        0.0300
     11 C           7.0407    2.8039    0.0000 C.3     1  UNL1        0.0037
     12 C           3.9946    1.3544    0.0000 C.3     1  UNL1        0.0192
     13 C           6.5439    0.2433    0.0000 C.3     1  UNL1        0.0003
     14 C           2.9329    3.7369    0.0000 C.3     1  UNL1       -0.0336
     15 C           8.2595    1.4005    0.0000 C.3     1  UNL1        0.0025
     16 C           7.4766   -0.2205    0.0000 C.3     1  UNL1        0.1060
     17 C           8.3402    0.3620    0.0000 C.3     1  UNL1       -0.0028
     18 C           1.9028    3.5818    0.0000 C.3     1  UNL1       -0.0431
     19 C           2.1913    1.8050    0.0000 C.2     1  UNL1        0.2158
     20 C           1.5295    2.6094    0.0000 C.3     1  UNL1        0.0242
     21 C           8.4396   -1.6602    0.0000 C.2     1  UNL1        0.3348
     22 C           8.5055   -2.6580    0.0000 C.2     1  UNL1        0.0293
     23 C           7.6743   -3.2140    0.0000 C.3     1  UNL1       -0.0333
     24 C           9.4026   -3.0998    0.0000 C.2     1  UNL1       -0.0774
     25 C           9.4685   -4.0976    0.0000 C.3     1  UNL1       -0.0461
     26 H           5.4863    1.3280    0.0000 H       1  UNL1        0.0331
     27 H           4.7875    3.9360    0.0000 H       1  UNL1        0.0331
     28 H           5.7826    0.8081    0.0000 H       1  UNL1        0.0467
     29 H           5.4263    4.6300    0.0000 H       1  UNL1        0.0273
     30 H           6.3572    4.1896    0.0000 H       1  UNL1        0.0273
     31 H           3.8804    3.7109    0.0000 H       1  UNL1        0.0503
     32 H           7.0458    3.4239    0.0000 H       1  UNL1        0.0430
     33 H           7.6550    2.8877    0.0000 H       1  UNL1        0.0430
     34 H           4.3792    0.8681    0.0000 H       1  UNL1        0.0468
     35 H           3.5536    0.9186    0.0000 H       1  UNL1        0.0468
     36 H           6.3669   -0.3509    0.0000 H       1  UNL1        0.0316
     37 H           5.9282    0.3161    0.0000 H       1  UNL1        0.0316
     38 H           2.7370    4.3251    0.0000 H       1  UNL1        0.0283
     39 H           3.4789    4.0304    0.0000 H       1  UNL1        0.0283
     40 H           8.4227    1.9986    0.0000 H       1  UNL1        0.0428
     41 H           8.8767    1.3420    0.0000 H       1  UNL1        0.0428
     42 H           8.0333   -0.4934    0.0000 H       1  UNL1        0.0735
     43 H           8.9410    0.5151    0.0000 H       1  UNL1        0.0313
     44 H           8.5938   -0.2038    0.0000 H       1  UNL1        0.0313
     45 H           1.2945    3.7017    0.0000 H       1  UNL1        0.0270
     46 H           1.9168    4.2017    0.0000 H       1  UNL1        0.0270
     47 H           1.1252    2.1394    0.0000 H       1  UNL1        0.0358
     48 H           0.9973    2.9274    0.0000 H       1  UNL1        0.0358
     49 H           8.0190   -3.7293    0.0000 H       1  UNL1        0.0280
     50 H           7.1590   -3.5587    0.0000 H       1  UNL1        0.0280
     51 H           7.3296   -2.6986    0.0000 H       1  UNL1        0.0280
     52 H           9.9180   -2.7551    0.0000 H       1  UNL1        0.0574
     53 H          10.0872   -4.0568    0.0000 H       1  UNL1        0.0272
     54 H           9.5094   -4.7163    0.0000 H       1  UNL1        0.0272
     55 H           8.8499   -4.1385    0.0000 H       1  UNL1        0.0272
@<TRIPOS>BOND
     1    16     1    1
     2     1    21    1
     3     2    19    2
     4     3    21    2
     5     4     8    1
     6     4    11    1
     7     4    15    1
     8     5    10    1
     9     5    12    1
    10     5    19   am
    11     6     8    1
    12     6     9    1
    13     6    12    1
    14     6    26    1
    15     7     9    1
    16     7    10    1
    17     7    11    1
    18     7    27    1
    19     8    13    1
    20     8    28    1
    21     9    29    1
    22     9    30    1
    23    10    14    1
    24    10    31    1
    25    11    32    1
    26    11    33    1
    27    12    34    1
    28    12    35    1
    29    13    16    1
    30    13    36    1
    31    13    37    1
    32    14    18    1
    33    14    38    1
    34    14    39    1
    35    15    17    1
    36    15    40    1
    37    15    41    1
    38    16    17    1
    39    16    42    1
    40    17    43    1
    41    17    44    1
    42    18    20    1
    43    18    45    1
    44    18    46    1
    45    19    20    1
    46    20    47    1
    47    20    48    1
    48    21    22    1
    49    22    23    1
    50    22    24    2
    51    23    49    1
    52    23    50    1
    53    23    51    1
    54    24    25    1
    55    24    52    1
    56    25    53    1
    57    25    54    1
    58    25    55    1
