@<TRIPOS>MOLECULE
IMPHY009163
 50 53 0 0 0
SMALL
GASTEIGER

@<TRIPOS>ATOM
      1 O           5.1350   -0.2852    0.0000 O.3     1  UNL1       -0.3313
      2 O           6.8671   -0.2852    0.0000 O.3     1  UNL1       -0.4551
      3 O           5.1350   -3.2852    0.0000 O.3     1  UNL1       -0.3864
      4 O           3.4030   -2.2852    0.0000 O.3     1  UNL1       -0.3865
      5 O           6.8671   -2.2852    0.0000 O.3     1  UNL1       -0.3829
      6 O           2.5369   -0.7852    0.0000 O.3     1  UNL1       -0.3924
      7 O           5.0971    0.7458    0.0000 O.3     1  UNL1       -0.4914
      8 N           8.7145    0.9191    0.0000 N.ar    1  UNL1       -0.3498
      9 N          10.7921    2.7454    0.0000 N.ar    1  UNL1       -0.2581
     10 C           5.1350   -2.2852    0.0000 C.3     1  UNL1        0.1152
     11 C           4.2690   -1.7852    0.0000 C.3     1  UNL1        0.1120
     12 C           6.0010   -1.7852    0.0000 C.3     1  UNL1        0.1454
     13 C           4.2690   -0.7852    0.0000 C.3     1  UNL1        0.1140
     14 C           6.0010   -0.7852    0.0000 C.3     1  UNL1        0.2311
     15 C           3.4030   -0.2852    0.0000 C.3     1  UNL1        0.0731
     16 C           6.8671    0.7148    0.0000 C.ar    1  UNL1        0.1891
     17 C           7.7671    1.2391    0.0000 C.ar    1  UNL1        0.0936
     18 C           7.7787    2.2391    0.0000 C.ar    1  UNL1        0.0113
     19 C           8.7333    2.5371    0.0000 C.ar    1  UNL1        0.0107
     20 C           9.3116    1.7213    0.0000 C.ar    1  UNL1        0.0689
     21 C           5.9670    1.2391    0.0000 C.ar    1  UNL1        0.1637
     22 C           6.8910    2.7840    0.0000 C.ar    1  UNL1       -0.0483
     23 C           5.9790    2.2807    0.0000 C.ar    1  UNL1       -0.0156
     24 C          10.3501    1.8022    0.0000 C.ar    1  UNL1        0.0620
     25 C           9.1533    3.4903    0.0000 C.ar    1  UNL1       -0.0338
     26 C          10.1896    3.5952    0.0000 C.ar    1  UNL1        0.0286
     27 C          10.9191    0.9798    0.0000 C.3     1  UNL1       -0.0203
     28 C           4.2350    1.2525    0.0000 C.3     1  UNL1        0.0790
     29 H           5.6720   -2.5952    0.0000 H       1  UNL1        0.0648
     30 H           4.2690   -2.4052    0.0000 H       1  UNL1        0.0647
     31 H           6.5380   -1.4752    0.0000 H       1  UNL1        0.0683
     32 H           4.2690   -0.1652    0.0000 H       1  UNL1        0.0647
     33 H           6.0010   -0.1652    0.0000 H       1  UNL1        0.1084
     34 H           3.8015    0.1898    0.0000 H       1  UNL1        0.0584
     35 H           3.0044    0.1898    0.0000 H       1  UNL1        0.0584
     36 H           4.5981   -3.5952    0.0000 H       1  UNL1        0.2100
     37 H           3.4030   -2.9052    0.0000 H       1  UNL1        0.2100
     38 H           6.8671   -2.9052    0.0000 H       1  UNL1        0.2102
     39 H           8.8993    0.3273    0.0000 H       1  UNL1        0.1661
     40 H           6.9053    3.4039    0.0000 H       1  UNL1        0.0625
     41 H           2.0000   -0.4752    0.0000 H       1  UNL1        0.2095
     42 H           5.4470    2.5989    0.0000 H       1  UNL1        0.0655
     43 H           8.7888    3.9919    0.0000 H       1  UNL1        0.0639
     44 H          10.4461    4.1596    0.0000 H       1  UNL1        0.0830
     45 H          10.4092    0.6271    0.0000 H       1  UNL1        0.0293
     46 H          11.2718    0.4699    0.0000 H       1  UNL1        0.0293
     47 H          11.4289    1.3325    0.0000 H       1  UNL1        0.0293
     48 H           4.5491    1.7870    0.0000 H       1  UNL1        0.0660
     49 H           3.7005    1.5666    0.0000 H       1  UNL1        0.0660
     50 H           3.9209    0.7180    0.0000 H       1  UNL1        0.0660
@<TRIPOS>BOND
     1     1    13    1
     2     1    14    1
     3    14     2    1
     4     2    16    1
     5    10     3    1
     6     3    36    1
     7    11     4    1
     8     4    37    1
     9    12     5    1
    10     5    38    1
    11     6    15    1
    12     6    41    1
    13     7    21    1
    14     7    28    1
    15     8    17   ar
    16     8    20   ar
    17     8    39    1
    18     9    24   ar
    19     9    26   ar
    20    10    11    1
    21    10    12    1
    22    10    29    1
    23    11    13    1
    24    11    30    1
    25    12    14    1
    26    12    31    1
    27    13    15    1
    28    13    32    1
    29    14    33    1
    30    15    34    1
    31    15    35    1
    32    16    17   ar
    33    16    21   ar
    34    17    18   ar
    35    18    19   ar
    36    18    22   ar
    37    19    20   ar
    38    19    25   ar
    39    20    24   ar
    40    21    23   ar
    41    22    23   ar
    42    22    40    1
    43    23    42    1
    44    24    27    1
    45    25    26   ar
    46    25    43    1
    47    26    44    1
    48    27    45    1
    49    27    46    1
    50    27    47    1
    51    28    48    1
    52    28    49    1
    53    28    50    1
