@<TRIPOS>MOLECULE
IMPHY007550
 79 83 0 0 0
SMALL
GASTEIGER

@<TRIPOS>ATOM
      1 O           2.0000   -2.6574    0.0000 O.2     1  UNL1       -0.2968
      2 O          10.9251    0.4291    0.0000 O.3     1  UNL1       -0.4802
      3 O          10.0707   -1.0775    0.0000 O.2     1  UNL1       -0.2504
      4 C           6.5271   -1.1050    0.0000 C.3     1  UNL1       -0.0194
      5 C           5.6610   -0.6051    0.0000 C.3     1  UNL1       -0.0257
      6 C           7.3931   -0.6051    0.0000 C.3     1  UNL1       -0.0051
      7 C           4.7510   -1.1119    0.0000 C.3     1  UNL1       -0.0243
      8 C           4.7430   -2.1535    0.0000 C.3     1  UNL1       -0.0235
      9 C           6.5431   -2.1466    0.0000 C.3     1  UNL1       -0.0463
     10 C           7.3931    0.3949    0.0000 C.2     1  UNL1       -0.0626
     11 C           8.2870    0.9296    0.0000 C.3     1  UNL1       -0.0008
     12 C           5.6451   -2.6743    0.0000 C.3     1  UNL1       -0.0483
     13 C           9.1931    0.4158    0.0000 C.3     1  UNL1        0.0743
     14 C           8.2870   -1.1397    0.0000 C.3     1  UNL1       -0.0424
     15 C           5.6610    0.3949    0.0000 C.3     1  UNL1       -0.0306
     16 C           3.8076   -2.7032    0.0000 C.3     1  UNL1        0.0267
     17 C           3.8242   -0.5478    0.0000 C.3     1  UNL1       -0.0404
     18 C           9.1931   -0.6259    0.0000 C.3     1  UNL1       -0.0359
     19 C           7.1698   -1.8711    0.0000 C.3     1  UNL1       -0.0585
     20 C           6.5271    0.8949    0.0000 C.2     1  UNL1       -0.0836
     21 C           8.2619    2.0143    0.0000 C.3     1  UNL1       -0.0337
     22 C           7.7352   -1.5447    0.0000 C.3     1  UNL1       -0.0553
     23 C           4.7587   -0.1119    0.0000 C.3     1  UNL1       -0.0590
     24 C          10.1369    0.9510    0.0000 C.3     1  UNL1       -0.0364
     25 C           2.8763   -1.0758    0.0000 C.3     1  UNL1        0.0069
     26 C           9.1931    2.5712    0.0000 C.3     1  UNL1       -0.0407
     27 C           2.8680   -2.1607    0.0000 C.2     1  UNL1        0.1392
     28 C          10.1369    2.0360    0.0000 C.3     1  UNL1       -0.0492
     29 C           3.3109   -3.5712    0.0000 C.3     1  UNL1       -0.0528
     30 C           4.3109   -3.5673    0.0000 C.3     1  UNL1       -0.0528
     31 C          10.0629   -0.0775    0.0000 C.2     1  UNL1        0.3115
     32 C           7.3864    2.4975    0.0000 C.3     1  UNL1       -0.0616
     33 C           9.1815    3.5712    0.0000 C.3     1  UNL1       -0.0622
     34 H           6.3972   -0.1801    0.0000 H       1  UNL1        0.0315
     35 H           4.7463   -3.0035    0.0000 H       1  UNL1        0.0315
     36 H           6.7612   -2.7270    0.0000 H       1  UNL1        0.0271
     37 H           7.1523   -2.0311    0.0000 H       1  UNL1        0.0271
     38 H           7.5428    1.3404    0.0000 H       1  UNL1        0.0359
     39 H           5.2478   -3.1503    0.0000 H       1  UNL1        0.0269
     40 H           6.0460   -3.1472    0.0000 H       1  UNL1        0.0269
     41 H           7.8824   -1.6095    0.0000 H       1  UNL1        0.0274
     42 H           8.6806   -1.6187    0.0000 H       1  UNL1        0.0274
     43 H           5.4490    0.9776    0.0000 H       1  UNL1        0.0310
     44 H           5.0504    0.2873    0.0000 H       1  UNL1        0.0310
     45 H           4.2324   -0.0812    0.0000 H       1  UNL1        0.0275
     46 H           3.4343   -0.0658    0.0000 H       1  UNL1        0.0275
     47 H           9.4022   -1.2096    0.0000 H       1  UNL1        0.0276
     48 H           9.8040   -0.5198    0.0000 H       1  UNL1        0.0276
     49 H           6.6949   -2.2696    0.0000 H       1  UNL1        0.0235
     50 H           7.5684   -2.3460    0.0000 H       1  UNL1        0.0235
     51 H           7.6448   -1.4726    0.0000 H       1  UNL1        0.0235
     52 H           6.5271    1.5150    0.0000 H       1  UNL1        0.0572
     53 H           7.7317    1.6930    0.0000 H       1  UNL1        0.0307
     54 H           7.1526   -1.7568    0.0000 H       1  UNL1        0.0238
     55 H           7.9473   -2.1273    0.0000 H       1  UNL1        0.0238
     56 H           8.3178   -1.3326    0.0000 H       1  UNL1        0.0238
     57 H           5.3787   -0.1167    0.0000 H       1  UNL1        0.0235
     58 H           4.7635    0.5081    0.0000 H       1  UNL1        0.0235
     59 H           4.1388   -0.1071    0.0000 H       1  UNL1        0.0235
     60 H          10.3459    0.3673    0.0000 H       1  UNL1        0.0276
     61 H          10.7477    1.0571    0.0000 H       1  UNL1        0.0276
     62 H           2.6718   -0.4905    0.0000 H       1  UNL1        0.0342
     63 H           2.2647   -1.1771    0.0000 H       1  UNL1        0.0342
     64 H           9.7270    2.8864    0.0000 H       1  UNL1        0.0301
     65 H          10.7477    1.9299    0.0000 H       1  UNL1        0.0268
     66 H          10.3459    2.6197    0.0000 H       1  UNL1        0.0268
     67 H           2.7728   -3.2632    0.0000 H       1  UNL1        0.0239
     68 H           3.0030   -4.1093    0.0000 H       1  UNL1        0.0239
     69 H           3.8490   -3.8791    0.0000 H       1  UNL1        0.0239
     70 H           3.7752   -3.8794    0.0000 H       1  UNL1        0.0239
     71 H           4.6230   -4.1030    0.0000 H       1  UNL1        0.0239
     72 H           4.8466   -3.2553    0.0000 H       1  UNL1        0.0239
     73 H           7.6860    3.0403    0.0000 H       1  UNL1        0.0233
     74 H           6.8436    2.7971    0.0000 H       1  UNL1        0.0233
     75 H           7.0868    1.9547    0.0000 H       1  UNL1        0.0233
     76 H           9.8015    3.5783    0.0000 H       1  UNL1        0.0233
     77 H           9.1744    4.1911    0.0000 H       1  UNL1        0.0233
     78 H           8.5616    3.5640    0.0000 H       1  UNL1        0.0233
     79 H          11.4644    0.1233    0.0000 H       1  UNL1        0.2951
@<TRIPOS>BOND
     1     1    27    2
     2     2    31    1
     3     2    79    1
     4     3    31    2
     5     4     5    1
     6     4     6    1
     7     4     9    1
     8     4    19    1
     9     5     7    1
    10     5    15    1
    11     5    34    1
    12     6    10    1
    13     6    14    1
    14     6    22    1
    15     7     8    1
    16     7    17    1
    17     7    23    1
    18     8    12    1
    19     8    16    1
    20     8    35    1
    21     9    12    1
    22     9    36    1
    23     9    37    1
    24    10    11    1
    25    10    20    2
    26    11    13    1
    27    11    21    1
    28    11    38    1
    29    12    39    1
    30    12    40    1
    31    13    18    1
    32    13    24    1
    33    13    31    1
    34    14    18    1
    35    14    41    1
    36    14    42    1
    37    15    20    1
    38    15    43    1
    39    15    44    1
    40    16    27    1
    41    16    29    1
    42    16    30    1
    43    17    25    1
    44    17    45    1
    45    17    46    1
    46    18    47    1
    47    18    48    1
    48    19    49    1
    49    19    50    1
    50    19    51    1
    51    20    52    1
    52    21    26    1
    53    21    32    1
    54    21    53    1
    55    22    54    1
    56    22    55    1
    57    22    56    1
    58    23    57    1
    59    23    58    1
    60    23    59    1
    61    24    28    1
    62    24    60    1
    63    24    61    1
    64    25    27    1
    65    25    62    1
    66    25    63    1
    67    26    28    1
    68    26    33    1
    69    26    64    1
    70    28    65    1
    71    28    66    1
    72    29    67    1
    73    29    68    1
    74    29    69    1
    75    30    70    1
    76    30    71    1
    77    30    72    1
    78    32    73    1
    79    32    74    1
    80    32    75    1
    81    33    76    1
    82    33    77    1
    83    33    78    1
