@<TRIPOS>MOLECULE
IMPHY000823
 62 64 0 0 0
SMALL
GASTEIGER

@<TRIPOS>ATOM
      1 O           8.0901    0.3191    0.0000 O.3     1  UNL1       -0.4828
      2 O           8.0785    3.3883    0.0000 O.2     1  UNL1       -0.2917
      3 O           6.3301    3.3537    0.0000 O.3     1  UNL1       -0.5055
      4 O          10.7166   -2.1738    0.0000 O.3     1  UNL1       -0.5031
      5 O          12.4525   -1.1804    0.0000 O.3     1  UNL1       -0.4914
      6 O           4.5981    0.3537    0.0000 O.3     1  UNL1       -0.5062
      7 C           8.9962    0.8329    0.0000 C.3     1  UNL1        0.1325
      8 C           8.9962    1.8745    0.0000 C.3     1  UNL1        0.0520
      9 C           9.8602    0.3296    0.0000 C.ar    1  UNL1        0.0002
     10 C           7.1962    1.8537    0.0000 C.ar    1  UNL1        0.1009
     11 C           8.0901    2.3884    0.0000 C.2     1  UNL1        0.1740
     12 C           7.1962    0.8537    0.0000 C.ar    1  UNL1        0.1389
     13 C           9.8564   -0.6704    0.0000 C.ar    1  UNL1        0.0081
     14 C           6.3301    2.3537    0.0000 C.ar    1  UNL1        0.1378
     15 C          10.7282    0.8262    0.0000 C.ar    1  UNL1       -0.0511
     16 C           5.4641    1.8537    0.0000 C.ar    1  UNL1        0.0400
     17 C           8.9884   -1.1671    0.0000 C.3     1  UNL1       -0.0053
     18 C           6.3301    0.3537    0.0000 C.ar    1  UNL1        0.0228
     19 C          10.7205   -1.1738    0.0000 C.ar    1  UNL1        0.1624
     20 C           5.4641    0.8537    0.0000 C.ar    1  UNL1        0.1273
     21 C          11.5923    0.3229    0.0000 C.ar    1  UNL1       -0.0159
     22 C          11.5884   -0.6771    0.0000 C.ar    1  UNL1        0.1616
     23 C           4.5981    2.3537    0.0000 C.3     1  UNL1       -0.0023
     24 C           8.9846   -2.1671    0.0000 C.2     1  UNL1       -0.0809
     25 C           3.7320    1.8537    0.0000 C.2     1  UNL1       -0.0807
     26 C           8.1166   -2.6637    0.0000 C.2     1  UNL1       -0.0793
     27 C           2.8660    2.3537    0.0000 C.2     1  UNL1       -0.0793
     28 C           8.1128   -3.6637    0.0000 C.3     1  UNL1       -0.0440
     29 C           7.2526   -2.1604    0.0000 C.3     1  UNL1       -0.0440
     30 C          13.3205   -0.6838    0.0000 C.3     1  UNL1        0.0790
     31 C           2.0000    1.8537    0.0000 C.3     1  UNL1       -0.0440
     32 C           2.8660    3.3537    0.0000 C.3     1  UNL1       -0.0440
     33 H           8.9926    0.2129    0.0000 H       1  UNL1        0.0789
     34 H           9.6070    1.7684    0.0000 H       1  UNL1        0.0385
     35 H           9.2052    2.4582    0.0000 H       1  UNL1        0.0385
     36 H          10.7306    1.4462    0.0000 H       1  UNL1        0.0623
     37 H           8.7787   -0.5837    0.0000 H       1  UNL1        0.0357
     38 H           8.3775   -1.2724    0.0000 H       1  UNL1        0.0357
     39 H           6.3301   -0.2663    0.0000 H       1  UNL1        0.0691
     40 H          12.1304    0.6308    0.0000 H       1  UNL1        0.0655
     41 H           4.9966    2.8287    0.0000 H       1  UNL1        0.0358
     42 H           4.1996    2.8287    0.0000 H       1  UNL1        0.0358
     43 H           9.5203   -2.4791    0.0000 H       1  UNL1        0.0575
     44 H           3.7320    1.2337    0.0000 H       1  UNL1        0.0575
     45 H           5.7932    3.6637    0.0000 H       1  UNL1        0.2922
     46 H          11.2524   -2.4858    0.0000 H       1  UNL1        0.2923
     47 H           4.5981   -0.2663    0.0000 H       1  UNL1        0.2921
     48 H           7.4928   -3.6613    0.0000 H       1  UNL1        0.0274
     49 H           8.1104   -4.2837    0.0000 H       1  UNL1        0.0274
     50 H           7.5646   -1.6247    0.0000 H       1  UNL1        0.0274
     51 H           6.7168   -1.8483    0.0000 H       1  UNL1        0.0274
     52 H           6.9405   -2.6961    0.0000 H       1  UNL1        0.0274
     53 H           8.7328   -3.6661    0.0000 H       1  UNL1        0.0274
     54 H          13.6284   -1.2219    0.0000 H       1  UNL1        0.0660
     55 H          13.8586   -0.3758    0.0000 H       1  UNL1        0.0660
     56 H          13.0125   -0.1456    0.0000 H       1  UNL1        0.0660
     57 H           1.6900    2.3907    0.0000 H       1  UNL1        0.0274
     58 H           1.4631    1.5437    0.0000 H       1  UNL1        0.0274
     59 H           2.3100    1.3168    0.0000 H       1  UNL1        0.0274
     60 H           3.4860    3.3537    0.0000 H       1  UNL1        0.0274
     61 H           2.8660    3.9737    0.0000 H       1  UNL1        0.0274
     62 H           2.2460    3.3537    0.0000 H       1  UNL1        0.0274
@<TRIPOS>BOND
     1     1     7    1
     2     1    12    1
     3     2    11    2
     4     3    14    1
     5     3    45    1
     6     4    19    1
     7     4    46    1
     8     5    22    1
     9     5    30    1
    10     6    20    1
    11     6    47    1
    12     7     8    1
    13     7     9    1
    14     7    33    1
    15     8    11    1
    16     8    34    1
    17     8    35    1
    18     9    13   ar
    19     9    15   ar
    20    10    11    1
    21    10    12   ar
    22    10    14   ar
    23    12    18   ar
    24    13    17    1
    25    13    19   ar
    26    14    16   ar
    27    15    21   ar
    28    15    36    1
    29    16    20   ar
    30    16    23    1
    31    17    24    1
    32    17    37    1
    33    17    38    1
    34    18    20   ar
    35    18    39    1
    36    19    22   ar
    37    21    22   ar
    38    21    40    1
    39    23    25    1
    40    23    41    1
    41    23    42    1
    42    24    26    2
    43    24    43    1
    44    25    27    2
    45    25    44    1
    46    26    28    1
    47    26    29    1
    48    27    31    1
    49    27    32    1
    50    28    48    1
    51    28    49    1
    52    28    53    1
    53    29    50    1
    54    29    51    1
    55    29    52    1
    56    30    54    1
    57    30    55    1
    58    30    56    1
    59    31    57    1
    60    31    58    1
    61    31    59    1
    62    32    60    1
    63    32    61    1
    64    32    62    1
